data_licoo2
_cell_length_a                      5.87710004
_cell_length_b                      5.87710004
_cell_length_c                      9.859925
_cell_angle_alpha                   90.0
_cell_angle_beta                    90.0
_cell_angle_gamma                   120.0
_symmetry_space_group_name_H-M      P1
loop_
_space_group_symop_id
_space_group_symop_operation_xyz
1 x,y,z
loop_
_atom_site_label
_atom_site_type_symbol
_atom_site_fract_x
_atom_site_fract_y
_atom_site_fract_z
X1 X 0.66667 0.33333 0.74925
X2 X 0.66108 0.33892 0.74855
X3 X 0.65600 0.34400 0.74741
X4 X 0.65101 0.34899 0.74591
X5 X 0.64604 0.35396 0.74433
X6 X 0.64110 0.35890 0.74263
X7 X 0.63620 0.36380 0.74086
X8 X 0.63131 0.36869 0.73904
X9 X 0.62643 0.37357 0.73719
X10 X 0.62156 0.37844 0.73532
X11 X 0.61669 0.38331 0.73344
X12 X 0.61182 0.38818 0.73156
X13 X 0.60695 0.39305 0.72968
X14 X 0.60208 0.39792 0.72780
X15 X 0.59721 0.40279 0.72593
X16 X 0.59233 0.40767 0.72407
X17 X 0.58745 0.41255 0.72222
X18 X 0.58257 0.41743 0.72038
X19 X 0.57768 0.42232 0.71856
X20 X 0.57279 0.42721 0.71674
X21 X 0.56789 0.43211 0.71494
X22 X 0.56299 0.43701 0.71315
X23 X 0.55808 0.44192 0.71139
X24 X 0.55317 0.44683 0.70962
X25 X 0.54826 0.45174 0.70787
X26 X 0.54334 0.45666 0.70612
X27 X 0.53843 0.46157 0.70435
X28 X 0.53355 0.46645 0.70252
X29 X 0.52869 0.47131 0.70059
X30 X 0.52400 0.47600 0.69828
X31 X 0.51966 0.48034 0.69534
X32 X 0.51596 0.48404 0.69156
X33 X 0.51309 0.48691 0.68709
X34 X 0.51092 0.48908 0.68221
X35 X 0.50923 0.49077 0.67714
X36 X 0.50811 0.49189 0.67190
X37 X 0.50699 0.49301 0.66665
X38 X 0.50607 0.49393 0.66137
X39 X 0.50530 0.49470 0.65606
X40 X 0.50463 0.49537 0.65074
X41 X 0.50405 0.49595 0.64541
X42 X 0.50354 0.49646 0.64007
X43 X 0.50307 0.49693 0.63472
X44 X 0.50262 0.49738 0.62938
X45 X 0.50220 0.49780 0.62403
X46 X 0.50177 0.49823 0.61868
X47 X 0.50127 0.49873 0.61334
X48 X 0.50076 0.49924 0.60799
X49 X 0.50020 0.49980 0.60266
X50 X 0.49954 0.50046 0.59734
X51 X 0.49876 0.50124 0.59203
X52 X 0.49781 0.50219 0.58675
X53 X 0.49665 0.50335 0.58152
X54 X 0.49523 0.50477 0.57636
X55 X 0.49351 0.50649 0.57129
X56 X 0.49147 0.50853 0.56636
X57 X 0.48908 0.51092 0.56159
X58 X 0.48615 0.51385 0.55716
X59 X 0.48321 0.51679 0.55273
X60 X 0.48003 0.51997 0.54849
X61 X 0.47665 0.52335 0.54441
X62 X 0.47310 0.52690 0.54049
X63 X 0.46942 0.53058 0.53669
X64 X 0.46565 0.53435 0.53300
X65 X 0.46179 0.53821 0.52940
X66 X 0.45788 0.54212 0.52587
X67 X 0.45393 0.54607 0.52239
X68 X 0.44993 0.55007 0.51895
X69 X 0.44590 0.55410 0.51557
X70 X 0.44186 0.55814 0.51218
X71 X 0.43781 0.56219 0.50882
X72 X 0.43374 0.56626 0.50548
X73 X 0.42967 0.57033 0.50214
X74 X 0.42559 0.57441 0.49882
X75 X 0.42150 0.57850 0.49550
X76 X 0.41742 0.58258 0.49218
X77 X 0.41333 0.58667 0.48886
X78 X 0.40925 0.59075 0.48554
X79 X 0.40518 0.59482 0.48220
X80 X 0.40111 0.59889 0.47886
X81 X 0.39706 0.60294 0.47550
X82 X 0.39302 0.60698 0.47212
X83 X 0.38900 0.61100 0.46872
X84 X 0.38498 0.61502 0.46532
X85 X 0.38101 0.61899 0.46185
X86 X 0.37707 0.62293 0.45834
X87 X 0.37319 0.62681 0.45477
X88 X 0.36937 0.63063 0.45113
X89 X 0.36563 0.63437 0.44740
X90 X 0.36200 0.63800 0.44357
X91 X 0.35849 0.64151 0.43960
X92 X 0.35515 0.64485 0.43549
X93 X 0.35201 0.64799 0.43121
X94 X 0.34912 0.65088 0.42676
X95 X 0.34622 0.65378 0.42230
X96 X 0.34387 0.65613 0.41751
X97 X 0.34185 0.65815 0.41257
X98 X 0.34015 0.65985 0.40750
X99 X 0.33876 0.66124 0.40232
X100 X 0.33764 0.66236 0.39708
X101 X 0.33674 0.66326 0.39180
X102 X 0.33604 0.66396 0.38648
X103 X 0.33548 0.66452 0.38114
X104 X 0.33505 0.66495 0.37580
X105 X 0.33471 0.66529 0.37044
X106 X 0.33437 0.66563 0.36508
X107 X 0.33417 0.66583 0.35972
X108 X 0.33401 0.66599 0.35436
X109 X 0.33389 0.66611 0.34899
X110 X 0.33379 0.66621 0.34363
X111 X 0.33372 0.66628 0.33826
X112 X 0.33365 0.66635 0.33289
X113 X 0.33360 0.66640 0.32753
X114 X 0.33356 0.66644 0.32216
X115 X 0.33353 0.66647 0.31679
X116 X 0.33350 0.66650 0.31143
X117 X 0.33347 0.66653 0.30606
X118 X 0.33345 0.66655 0.30069
X119 X 0.33344 0.66656 0.29532
X120 X 0.33342 0.66658 0.28996
X121 X 0.33341 0.66659 0.28459
X122 X 0.33340 0.66660 0.27922
X123 X 0.33339 0.66661 0.27386
X124 X 0.33338 0.66662 0.26849
X125 X 0.33337 0.66663 0.26312
X126 X 0.33336 0.66664 0.25776
X127 X 0.33335 0.66665 0.25239
X128 X 0.33333 0.66667 0.24925
Li1 Li 0.66667 0.33333 0.75000
Li2 Li 0.83333 0.16667 0.25000
Li3 Li 0.66667 0.83333 0.75000
Li4 Li 0.16667 0.33333 0.75000
Li5 Li 0.16667 0.83333 0.75000
Li6 Li 0.83333 0.66667 0.25000
Li7 Li 0.33333 0.16667 0.25000
Li8 Li 0.33333 0.66667 0.25000
O1 O 0.50000 0.00000 0.37856
O2 O 0.50000 0.00000 0.87856
O3 O 0.66667 0.33333 0.10524
O4 O 0.83333 0.16667 0.60523
O5 O 0.50000 0.50000 0.37856
O6 O 0.00000 0.00000 0.37856
O7 O 0.00000 0.50000 0.37856
O8 O 0.66667 0.83333 0.10524
O9 O 0.16667 0.33333 0.10524
O10 O 0.16667 0.83333 0.10524
O11 O 0.50000 0.50000 0.87856
O12 O 0.00000 0.00000 0.87856
O13 O 0.00000 0.50000 0.87856
O14 O 0.83333 0.66667 0.60523
O15 O 0.33333 0.16667 0.60523
O16 O 0.33333 0.66667 0.60523
Co1 Co 0.66667 0.33333 0.49230
Co2 Co 0.83333 0.16667 0.99230
Co3 Co 0.66667 0.83333 0.49230
Co4 Co 0.16667 0.33333 0.49230
Co5 Co 0.16667 0.83333 0.49230
Co6 Co 0.83333 0.66667 0.99230
Co7 Co 0.33333 0.16667 0.99230
Co8 Co 0.33333 0.66667 0.99230
#End of licoo2
