data_licoo2
_cell_length_a                      2.93855002
_cell_length_b                      2.93855002
_cell_length_c                      9.859925
_cell_angle_alpha                   90.0
_cell_angle_beta                    90.0
_cell_angle_gamma                   120.0
_symmetry_space_group_name_H-M      None
loop_
_space_group_symop_id
_space_group_symop_operation_xyz
1 x,y,z
2 x-y,x,1/2+z
3 -y,x-y,z
4 -x,-y,1/2+z
5 -x+y,-x,z
6 y,-x+y,1/2+z
7 y,x,1/2+z
8 x,x-y,z
9 x-y,-y,1/2+z
10 -y,-x,z
11 -x,-x+y,1/2+z
12 -x+y,y,z
loop_
_atom_site_label
_atom_site_type_symbol
_atom_site_fract_x
_atom_site_fract_y
_atom_site_fract_z
X1 X 0.32566 0.67208 0.75741
X2 X 0.34616 0.68534 0.75743
X3 X 0.36641 0.70047 0.75725
X4 X 0.38039 0.71124 0.75668
X5 X 0.40037 0.72453 0.75558
X6 X 0.42033 0.73661 0.75421
X7 X 0.44016 0.74780 0.75264
X8 X 0.45991 0.75857 0.75097
X9 X 0.47957 0.76900 0.74924
X10 X 0.49918 0.77922 0.74745
X11 X 0.51875 0.78931 0.74564
X12 X 0.53831 0.79932 0.74382
X13 X 0.55787 0.80934 0.74200
X14 X 0.57743 0.81935 0.74018
X15 X 0.59700 0.82940 0.73837
X16 X 0.61659 0.83950 0.73657
X17 X 0.63620 0.84967 0.73479
X18 X 0.65583 0.85994 0.73303
X19 X 0.67550 0.87032 0.73129
X20 X 0.69519 0.88083 0.72958
X21 X 0.71491 0.89149 0.72790
X22 X 0.73467 0.90234 0.72625
X23 X 0.75450 0.91363 0.72468
X24 X 0.77432 0.92492 0.72312
X25 X 0.79418 0.93648 0.72160
X26 X 0.81406 0.94836 0.72014
X27 X 0.83397 0.96061 0.71875
X28 X 0.85389 0.97327 0.71744
X29 X 0.87379 0.98668 0.71627
X30 X 0.89362 0.00074 0.71523
X31 X 0.91329 0.01572 0.71440
X32 X 0.93283 0.03115 0.71368
X33 X 0.95084 0.04916 0.71368
X34 X 0.32792 0.67434 0.75741
Li1 Li 0.33333 0.66667 0.75821
O1 O 0.00000 0.00000 0.38677
O2 O 0.33333 0.66667 0.11344
Co1 Co 0.33333 0.66667 0.50051
#End of licoo2
