data_li7la3zr2o12
_cell_length_a                      13.23607
_cell_length_b                      13.23607
_cell_length_c                      12.701706
_cell_angle_alpha                   90.0
_cell_angle_beta                    90.0
_cell_angle_gamma                   90.0
_symmetry_space_group_name_H-M      P1
loop_
_space_group_symop_id
_space_group_symop_operation_xyz
1 x,y,z
loop_
_atom_site_label
_atom_site_type_symbol
_atom_site_fract_x
_atom_site_fract_y
_atom_site_fract_z
X1 X 0.53861 0.41972 0.46113
X2 X 0.53687 0.42308 0.46248
X3 X 0.53516 0.42649 0.46374
X4 X 0.53349 0.42995 0.46489
X5 X 0.53184 0.43346 0.46591
X6 X 0.53023 0.43701 0.46679
X7 X 0.52862 0.44057 0.46767
X8 X 0.52707 0.44421 0.46828
X9 X 0.52556 0.44789 0.46876
X10 X 0.52408 0.45158 0.46913
X11 X 0.52263 0.45530 0.46945
X12 X 0.52119 0.45901 0.46978
X13 X 0.51976 0.46273 0.47017
X14 X 0.51859 0.46567 0.47060
X15 X 0.51779 0.46750 0.47094
X16 X 0.51616 0.47107 0.47173
X17 X 0.51450 0.47460 0.47262
X18 X 0.51282 0.47810 0.47363
X19 X 0.51114 0.48155 0.47479
X20 X 0.50946 0.48498 0.47602
X21 X 0.50778 0.48838 0.47735
X22 X 0.50611 0.49175 0.47877
X23 X 0.50445 0.49509 0.48026
X24 X 0.50279 0.49840 0.48183
X25 X 0.50114 0.50168 0.48347
X26 X 0.49949 0.50494 0.48518
X27 X 0.49785 0.50817 0.48694
X28 X 0.49622 0.51137 0.48876
X29 X 0.49459 0.51455 0.49062
X30 X 0.49296 0.51771 0.49253
X31 X 0.49134 0.52085 0.49448
X32 X 0.48973 0.52397 0.49647
X33 X 0.48812 0.52706 0.49851
X34 X 0.48651 0.53015 0.50056
X35 X 0.48490 0.53323 0.50262
X36 X 0.48330 0.53629 0.50471
X37 X 0.48170 0.53934 0.50683
X38 X 0.48010 0.54239 0.50896
X39 X 0.47850 0.54541 0.51111
X40 X 0.47691 0.54844 0.51327
X41 X 0.47531 0.55145 0.51545
X42 X 0.47372 0.55447 0.51762
X43 X 0.47213 0.55748 0.51980
X44 X 0.47053 0.56049 0.52198
X45 X 0.46893 0.56351 0.52415
X46 X 0.46733 0.56653 0.52630
X47 X 0.46572 0.56956 0.52844
X48 X 0.46399 0.57283 0.53064
X49 X 0.46166 0.57729 0.53178
X50 X 0.45984 0.58077 0.53105
Li1 Li 0.54026 0.41877 0.46543
Li2 Li 0.12221 0.66175 0.21543
Li3 Li 0.37923 0.74370 0.46543
Li4 Li 0.79728 0.50072 0.21543
Li5 Li 0.54026 0.24370 0.35372
Li6 Li 0.62221 0.50072 0.10372
Li7 Li 0.37923 0.91877 0.35372
Li8 Li 0.29728 0.66175 0.10372
Li9 Li 0.87923 0.74370 0.35372
Li10 Li 0.29728 0.50072 0.60372
Li11 Li 0.04026 0.41877 0.35372
Li12 Li 0.62221 0.66175 0.60372
Li13 Li 0.37923 0.41877 0.96543
Li14 Li 0.29728 0.16175 0.21543
Li15 Li 0.54026 0.74370 0.96543
Li16 Li 0.62221 0.00072 0.21543
Li17 Li 0.04026 0.91877 0.96543
Li18 Li 0.62221 0.16175 0.71543
Li19 Li 0.87923 0.24370 0.96543
Li20 Li 0.29728 0.00072 0.71543
Li21 Li 0.04026 0.74370 0.85372
Li22 Li 0.12221 0.00072 0.60372
Li23 Li 0.87923 0.41877 0.85372
Li24 Li 0.79728 0.16175 0.60372
Li25 Li 0.37923 0.24370 0.85372
Li26 Li 0.79728 0.00072 0.10372
Li27 Li 0.54026 0.91877 0.85372
Li28 Li 0.12221 0.16175 0.10372
Li29 Li 0.87923 0.91877 0.46543
Li30 Li 0.79728 0.66175 0.71543
Li31 Li 0.04026 0.24370 0.46543
Li32 Li 0.12221 0.50072 0.71543
Li33 Li 0.64095 0.76244 0.78457
Li34 Li 0.77853 0.76244 0.53457
Li35 Li 0.27853 0.40002 0.78457
Li36 Li 0.14095 0.40002 0.53457
Li37 Li 0.64095 0.90002 0.03457
Li38 Li 0.27853 0.26244 0.03457
Li39 Li 0.77853 0.40002 0.03457
Li40 Li 0.64095 0.40002 0.28457
Li41 Li 0.14095 0.76244 0.03457
Li42 Li 0.27853 0.76244 0.28457
Li43 Li 0.64095 0.26244 0.53457
Li44 Li 0.27853 0.90002 0.53457
Li45 Li 0.14095 0.26244 0.28457
Li46 Li 0.77853 0.90002 0.28457
Li47 Li 0.14095 0.90002 0.78457
Li48 Li 0.77853 0.26244 0.78457
Li49 Li 0.45974 0.58123 0.53457
Li50 Li 0.95974 0.58123 0.28457
Li51 Li 0.45974 0.08123 0.28457
Li52 Li 0.45974 0.58123 0.03457
Li53 Li 0.95974 0.08123 0.03457
Li54 Li 0.45974 0.08123 0.78457
Li55 Li 0.95974 0.58123 0.78457
Li56 Li 0.95974 0.08123 0.53457
O1 O 0.49436 0.77575 0.81328
O2 O 0.76523 0.61585 0.56328
O3 O 0.42513 0.38672 0.81328
O4 O 0.15426 0.54662 0.56328
O5 O 0.49436 0.88672 0.00587
O6 O 0.26523 0.54662 0.75587
O7 O 0.42513 0.27575 0.00587
O8 O 0.65426 0.61585 0.75587
O9 O 0.92513 0.38672 0.00587
O10 O 0.65426 0.54662 0.25587
O11 O 0.99436 0.77575 0.00587
O12 O 0.26523 0.61585 0.25587
O13 O 0.42513 0.77575 0.31328
O14 O 0.65426 0.11585 0.56328
O15 O 0.49436 0.38672 0.31328
O16 O 0.26523 0.04662 0.56328
O17 O 0.99436 0.27575 0.31328
O18 O 0.26523 0.11585 0.06328
O19 O 0.92513 0.88672 0.31328
O20 O 0.65426 0.04662 0.06328
O21 O 0.99436 0.38672 0.50587
O22 O 0.76523 0.04662 0.25587
O23 O 0.92513 0.77575 0.50587
O24 O 0.15426 0.11585 0.25587
O25 O 0.42513 0.88672 0.50587
O26 O 0.15426 0.04662 0.75587
O27 O 0.49436 0.27575 0.50587
O28 O 0.76523 0.11585 0.75587
O29 O 0.92513 0.27575 0.81328
O30 O 0.15426 0.61585 0.06328
O31 O 0.99436 0.88672 0.81328
O32 O 0.76523 0.54662 0.06328
O33 O 0.51471 0.97879 0.69390
O34 O 0.56219 0.63620 0.44390
O35 O 0.40478 0.18368 0.69390
O36 O 0.35730 0.52627 0.44390
O37 O 0.51471 0.68368 0.12524
O38 O 0.06219 0.52627 0.87524
O39 O 0.40478 0.47879 0.12524
O40 O 0.85730 0.63620 0.87524
O41 O 0.90478 0.18368 0.12524
O42 O 0.85730 0.52627 0.37524
O43 O 0.01471 0.97879 0.12524
O44 O 0.06219 0.63620 0.37524
O45 O 0.40478 0.97879 0.19390
O46 O 0.85730 0.13620 0.44390
O47 O 0.51471 0.18368 0.19390
O48 O 0.06219 0.02627 0.44390
O49 O 0.01471 0.47879 0.19390
O50 O 0.06219 0.13620 0.94390
O51 O 0.90478 0.68368 0.19390
O52 O 0.85730 0.02627 0.94390
O53 O 0.01471 0.18368 0.62524
O54 O 0.56219 0.02627 0.37524
O55 O 0.90478 0.97879 0.62524
O56 O 0.35730 0.13620 0.37524
O57 O 0.40478 0.68368 0.62524
O58 O 0.35730 0.02627 0.87524
O59 O 0.51471 0.47879 0.62524
O60 O 0.56219 0.13620 0.87524
O61 O 0.90478 0.47879 0.69390
O62 O 0.35730 0.63620 0.94390
O63 O 0.01471 0.68368 0.69390
O64 O 0.56219 0.52627 0.94390
O65 O 0.61057 0.80446 0.60581
O66 O 0.73652 0.73206 0.35581
O67 O 0.30892 0.35801 0.60581
O68 O 0.18297 0.43041 0.35581
O69 O 0.61057 0.85801 0.21334
O70 O 0.23652 0.43041 0.96334
O71 O 0.30892 0.30446 0.21334
O72 O 0.68297 0.73206 0.96334
O73 O 0.80892 0.35801 0.21334
O74 O 0.68297 0.43041 0.46334
O75 O 0.11057 0.80446 0.21334
O76 O 0.23652 0.73206 0.46334
O77 O 0.30892 0.80446 0.10581
O78 O 0.68297 0.23206 0.35581
O79 O 0.61057 0.35801 0.10581
O80 O 0.23652 0.93041 0.35581
O81 O 0.11057 0.30446 0.10581
O82 O 0.23652 0.23206 0.85581
O83 O 0.80892 0.85801 0.10581
O84 O 0.68297 0.93041 0.85581
O85 O 0.11057 0.35801 0.71334
O86 O 0.73652 0.93041 0.46334
O87 O 0.80892 0.80446 0.71334
O88 O 0.18297 0.23206 0.46334
O89 O 0.30892 0.85801 0.71334
O90 O 0.18297 0.93041 0.96334
O91 O 0.61057 0.30446 0.71334
O92 O 0.73652 0.23206 0.96334
O93 O 0.80892 0.30446 0.60581
O94 O 0.18297 0.73206 0.85581
O95 O 0.11057 0.85801 0.60581
O96 O 0.73652 0.43041 0.85581
Zr1 Zr 0.45974 0.83123 0.65957
Zr2 Zr 0.70974 0.58123 0.40957
Zr3 Zr 0.45974 0.33123 0.65957
Zr4 Zr 0.20974 0.58123 0.40957
Zr5 Zr 0.45974 0.83123 0.15957
Zr6 Zr 0.20974 0.58123 0.90957
Zr7 Zr 0.45974 0.33123 0.15957
Zr8 Zr 0.70974 0.58123 0.90957
Zr9 Zr 0.95974 0.33123 0.15957
Zr10 Zr 0.95974 0.83123 0.15957
Zr11 Zr 0.70974 0.08123 0.40957
Zr12 Zr 0.20974 0.08123 0.40957
Zr13 Zr 0.20974 0.08123 0.90957
Zr14 Zr 0.70974 0.08123 0.90957
Zr15 Zr 0.95974 0.33123 0.65957
Zr16 Zr 0.95974 0.83123 0.65957
La1 La 0.58711 0.83123 0.40957
La2 La 0.70974 0.70860 0.15957
La3 La 0.33237 0.33123 0.40957
La4 La 0.20974 0.45386 0.15957
La5 La 0.83237 0.33123 0.40957
La6 La 0.70974 0.45386 0.65957
La7 La 0.08711 0.83123 0.40957
La8 La 0.20974 0.70860 0.65957
La9 La 0.33237 0.83123 0.90957
La10 La 0.70974 0.20860 0.15957
La11 La 0.58711 0.33123 0.90957
La12 La 0.20974 0.95386 0.15957
La13 La 0.08711 0.33123 0.90957
La14 La 0.20974 0.20860 0.65957
La15 La 0.83237 0.83123 0.90957
La16 La 0.70974 0.95386 0.65957
La17 La 0.45974 0.58123 0.78457
La18 La 0.95974 0.58123 0.53457
La19 La 0.45974 0.08123 0.03457
La20 La 0.95974 0.58123 0.03457
La21 La 0.45974 0.58123 0.28457
La22 La 0.45974 0.08123 0.53457
La23 La 0.95974 0.08123 0.28457
La24 La 0.95974 0.08123 0.78457
#End of li7la3zr2o12
