data_li7la3zr2o12
_cell_length_a                      13.23607
_cell_length_b                      13.23607
_cell_length_c                      12.701706
_cell_angle_alpha                   90.0
_cell_angle_beta                    90.0
_cell_angle_gamma                   90.0
_symmetry_space_group_name_H-M      P1
loop_
_space_group_symop_id
_space_group_symop_operation_xyz
1 x,y,z
loop_
_atom_site_label
_atom_site_type_symbol
_atom_site_fract_x
_atom_site_fract_y
_atom_site_fract_z
X1 X 0.37930 0.57855 0.33596
X2 X 0.37756 0.58193 0.33723
X3 X 0.37586 0.58540 0.33834
X4 X 0.37422 0.58893 0.33924
X5 X 0.37267 0.59258 0.33977
X6 X 0.37090 0.59760 0.33971
X7 X 0.37248 0.59322 0.34101
X8 X 0.37403 0.58981 0.34246
X9 X 0.37575 0.58663 0.34424
X10 X 0.37762 0.58376 0.34638
X11 X 0.37954 0.58097 0.34861
X12 X 0.38151 0.57833 0.35096
X13 X 0.38352 0.57577 0.35338
X14 X 0.38558 0.57329 0.35585
X15 X 0.38766 0.57084 0.35832
X16 X 0.38978 0.56842 0.36080
X17 X 0.39196 0.56601 0.36323
X18 X 0.39414 0.56360 0.36565
X19 X 0.39634 0.56118 0.36804
X20 X 0.39858 0.55874 0.37038
X21 X 0.40084 0.55627 0.37266
X22 X 0.40314 0.55378 0.37488
X23 X 0.40546 0.55126 0.37702
X24 X 0.40780 0.54870 0.37908
X25 X 0.41018 0.54610 0.38106
X26 X 0.41257 0.54346 0.38294
X27 X 0.41499 0.54077 0.38472
X28 X 0.41745 0.53802 0.38633
X29 X 0.41990 0.53527 0.38794
X30 X 0.42238 0.53248 0.38946
X31 X 0.42486 0.52967 0.39089
X32 X 0.42735 0.52683 0.39224
X33 X 0.42986 0.52396 0.39353
X34 X 0.43236 0.52109 0.39478
X35 X 0.43488 0.51822 0.39601
X36 X 0.43740 0.51539 0.39735
X37 X 0.43992 0.51264 0.39884
X38 X 0.44244 0.50998 0.40051
X39 X 0.44490 0.50768 0.40276
X40 X 0.44730 0.50567 0.40534
X41 X 0.44959 0.50421 0.40840
X42 X 0.45189 0.50298 0.41155
X43 X 0.45435 0.50200 0.41468
X44 X 0.45708 0.50118 0.41761
X45 X 0.46003 0.50046 0.42032
X46 X 0.46316 0.49978 0.42280
X47 X 0.46644 0.49913 0.42509
X48 X 0.46981 0.49846 0.42722
X49 X 0.47330 0.49773 0.42910
X50 X 0.47685 0.49693 0.43083
X51 X 0.48041 0.49603 0.43247
X52 X 0.48398 0.49505 0.43404
X53 X 0.48754 0.49398 0.43557
X54 X 0.49104 0.49272 0.43711
X55 X 0.49444 0.49129 0.43873
X56 X 0.49769 0.48967 0.44047
X57 X 0.50072 0.48783 0.44240
X58 X 0.50347 0.48578 0.44453
X59 X 0.50583 0.48348 0.44688
X60 X 0.50803 0.48107 0.44930
X61 X 0.50987 0.47846 0.45181
X62 X 0.51149 0.47571 0.45431
X63 X 0.51292 0.47281 0.45677
X64 X 0.51420 0.46979 0.45914
X65 X 0.51537 0.46665 0.46142
X66 X 0.51647 0.46345 0.46363
X67 X 0.51739 0.46004 0.46558
X68 X 0.51832 0.45663 0.46753
X69 X 0.51909 0.45305 0.46921
X70 X 0.51983 0.44943 0.47081
X71 X 0.52050 0.44576 0.47229
X72 X 0.52112 0.44203 0.47366
X73 X 0.52167 0.43825 0.47490
X74 X 0.52219 0.43445 0.47607
X75 X 0.52264 0.43061 0.47712
X76 X 0.52306 0.42675 0.47810
X77 X 0.52344 0.42287 0.47901
X78 X 0.52380 0.41898 0.47990
X79 X 0.52417 0.41509 0.48082
X80 X 0.52459 0.41125 0.48187
X81 X 0.52522 0.40758 0.48340
X82 X 0.52637 0.40465 0.48597
X83 X 0.52790 0.40256 0.48914
X84 X 0.52953 0.40070 0.49241
X85 X 0.53121 0.39893 0.49571
X86 X 0.53289 0.39720 0.49904
X87 X 0.53459 0.39552 0.50238
X88 X 0.53629 0.39388 0.50573
X89 X 0.53801 0.39228 0.50911
X90 X 0.53973 0.39072 0.51250
X91 X 0.54146 0.38923 0.51592
X92 X 0.54320 0.38781 0.51937
X93 X 0.54494 0.38640 0.52282
X94 X 0.54670 0.38517 0.52633
X95 X 0.54849 0.38410 0.52989
X96 X 0.55029 0.38323 0.53349
X97 X 0.55210 0.38263 0.53715
X98 X 0.55393 0.38236 0.54085
X99 X 0.55576 0.38250 0.54455
X100 X 0.55756 0.38305 0.54823
X101 X 0.55933 0.38398 0.55183
X102 X 0.56106 0.38521 0.55536
X103 X 0.56277 0.38665 0.55882
X104 X 0.56447 0.38809 0.56228
X105 X 0.56614 0.38980 0.56562
X106 X 0.56780 0.39156 0.56893
X107 X 0.56946 0.39336 0.57223
X108 X 0.57112 0.39517 0.57551
X109 X 0.57279 0.39699 0.57879
X110 X 0.57446 0.39880 0.58207
X111 X 0.57614 0.40061 0.58535
X112 X 0.57782 0.40241 0.58863
X113 X 0.57951 0.40419 0.59192
X114 X 0.58121 0.40596 0.59521
X115 X 0.58291 0.40773 0.59850
X116 X 0.58462 0.40946 0.60180
X117 X 0.58634 0.41117 0.60512
X118 X 0.58807 0.41284 0.60844
X119 X 0.58981 0.41448 0.61178
X120 X 0.59156 0.41609 0.61513
X121 X 0.59332 0.41766 0.61850
X122 X 0.59508 0.41918 0.62188
X123 X 0.59685 0.42065 0.62530
X124 X 0.59861 0.42206 0.62873
X125 X 0.60035 0.42341 0.63221
X126 X 0.60210 0.42476 0.63568
X127 X 0.60381 0.42598 0.63923
X128 X 0.60545 0.42711 0.64284
X129 X 0.60700 0.42814 0.64653
X130 X 0.60840 0.42905 0.65031
X131 X 0.60960 0.42983 0.65420
X132 X 0.61051 0.43046 0.65951
X133 X 0.61095 0.43010 0.66211
X134 X 0.61215 0.42874 0.66583
Li1 Li 0.38086 0.57816 0.34043
Li2 Li 0.96281 0.82114 0.09043
Li3 Li 0.21983 0.90309 0.34043
Li4 Li 0.63788 0.66011 0.09043
Li5 Li 0.38086 0.40309 0.22872
Li6 Li 0.46281 0.66011 0.97872
Li7 Li 0.21983 0.07816 0.22872
Li8 Li 0.13788 0.82114 0.97872
Li9 Li 0.71983 0.90309 0.22872
Li10 Li 0.13788 0.66011 0.47872
Li11 Li 0.88086 0.57816 0.22872
Li12 Li 0.46281 0.82114 0.47872
Li13 Li 0.21983 0.57816 0.84043
Li14 Li 0.13788 0.32114 0.09043
Li15 Li 0.38086 0.90309 0.84043
Li16 Li 0.46281 0.16011 0.09043
Li17 Li 0.88086 0.07816 0.84043
Li18 Li 0.46281 0.32114 0.59043
Li19 Li 0.71983 0.40309 0.84043
Li20 Li 0.13788 0.16011 0.59043
Li21 Li 0.88086 0.90309 0.72872
Li22 Li 0.96281 0.16011 0.47872
Li23 Li 0.71983 0.57816 0.72872
Li24 Li 0.63788 0.32114 0.47872
Li25 Li 0.21983 0.40309 0.72872
Li26 Li 0.63788 0.16011 0.97872
Li27 Li 0.38086 0.07816 0.72872
Li28 Li 0.96281 0.32114 0.97872
Li29 Li 0.71983 0.07816 0.34043
Li30 Li 0.63788 0.82114 0.59043
Li31 Li 0.88086 0.40309 0.34043
Li32 Li 0.96281 0.66011 0.59043
Li33 Li 0.48156 0.92184 0.65957
Li34 Li 0.61914 0.92184 0.40957
Li35 Li 0.11914 0.55942 0.65957
Li36 Li 0.98156 0.55942 0.40957
Li37 Li 0.48156 0.05942 0.90957
Li38 Li 0.11914 0.42184 0.90957
Li39 Li 0.61914 0.55942 0.90957
Li40 Li 0.48156 0.55942 0.15957
Li41 Li 0.98156 0.92184 0.90957
Li42 Li 0.11914 0.92184 0.15957
Li43 Li 0.48156 0.42184 0.40957
Li44 Li 0.11914 0.05942 0.40957
Li45 Li 0.98156 0.42184 0.15957
Li46 Li 0.61914 0.05942 0.15957
Li47 Li 0.98156 0.05942 0.65957
Li48 Li 0.61914 0.42184 0.65957
Li49 Li 0.30035 0.74063 0.40957
Li50 Li 0.80035 0.74063 0.15957
Li51 Li 0.30035 0.24063 0.15957
Li52 Li 0.30035 0.74063 0.90957
Li53 Li 0.80035 0.24063 0.90957
Li54 Li 0.30035 0.24063 0.65957
Li55 Li 0.80035 0.74063 0.65957
Li56 Li 0.80035 0.24063 0.40957
O1 O 0.33496 0.93514 0.68828
O2 O 0.60583 0.77524 0.43828
O3 O 0.26573 0.54611 0.68828
O4 O 0.99486 0.70601 0.43828
O5 O 0.33496 0.04611 0.88087
O6 O 0.10583 0.70601 0.63087
O7 O 0.26573 0.43514 0.88087
O8 O 0.49486 0.77524 0.63087
O9 O 0.76573 0.54611 0.88087
O10 O 0.49486 0.70601 0.13087
O11 O 0.83496 0.93514 0.88087
O12 O 0.10583 0.77524 0.13087
O13 O 0.26573 0.93514 0.18828
O14 O 0.49486 0.27524 0.43828
O15 O 0.33496 0.54611 0.18828
O16 O 0.10583 0.20601 0.43828
O17 O 0.83496 0.43514 0.18828
O18 O 0.10583 0.27524 0.93828
O19 O 0.76573 0.04611 0.18828
O20 O 0.49486 0.20601 0.93828
O21 O 0.83496 0.54611 0.38087
O22 O 0.60583 0.20601 0.13087
O23 O 0.76573 0.93514 0.38087
O24 O 0.99486 0.27524 0.13087
O25 O 0.26573 0.04611 0.38087
O26 O 0.99486 0.20601 0.63087
O27 O 0.33496 0.43514 0.38087
O28 O 0.60583 0.27524 0.63087
O29 O 0.76573 0.43514 0.68828
O30 O 0.99486 0.77524 0.93828
O31 O 0.83496 0.04611 0.68828
O32 O 0.60583 0.70601 0.93828
O33 O 0.35531 0.13818 0.56890
O34 O 0.40279 0.79559 0.31890
O35 O 0.24538 0.34307 0.56890
O36 O 0.19790 0.68566 0.31890
O37 O 0.35531 0.84307 0.00024
O38 O 0.90279 0.68566 0.75024
O39 O 0.24538 0.63818 0.00024
O40 O 0.69790 0.79559 0.75024
O41 O 0.74538 0.34307 0.00024
O42 O 0.69790 0.68566 0.25024
O43 O 0.85531 0.13818 0.00024
O44 O 0.90279 0.79559 0.25024
O45 O 0.24538 0.13818 0.06890
O46 O 0.69790 0.29559 0.31890
O47 O 0.35531 0.34307 0.06890
O48 O 0.90279 0.18566 0.31890
O49 O 0.85531 0.63818 0.06890
O50 O 0.90279 0.29559 0.81890
O51 O 0.74538 0.84307 0.06890
O52 O 0.69790 0.18566 0.81890
O53 O 0.85531 0.34307 0.50024
O54 O 0.40279 0.18566 0.25024
O55 O 0.74538 0.13818 0.50024
O56 O 0.19790 0.29559 0.25024
O57 O 0.24538 0.84307 0.50024
O58 O 0.19790 0.18566 0.75024
O59 O 0.35531 0.63818 0.50024
O60 O 0.40279 0.29559 0.75024
O61 O 0.74538 0.63818 0.56890
O62 O 0.19790 0.79559 0.81890
O63 O 0.85531 0.84307 0.56890
O64 O 0.40279 0.68566 0.81890
O65 O 0.45117 0.96385 0.48081
O66 O 0.57712 0.89145 0.23081
O67 O 0.14952 0.51740 0.48081
O68 O 0.02357 0.58980 0.23081
O69 O 0.45117 0.01740 0.08834
O70 O 0.07712 0.58980 0.83834
O71 O 0.14952 0.46385 0.08834
O72 O 0.52357 0.89145 0.83834
O73 O 0.64952 0.51740 0.08834
O74 O 0.52357 0.58980 0.33834
O75 O 0.95117 0.96385 0.08834
O76 O 0.07712 0.89145 0.33834
O77 O 0.14952 0.96385 0.98081
O78 O 0.52357 0.39145 0.23081
O79 O 0.45117 0.51740 0.98081
O80 O 0.07712 0.08980 0.23081
O81 O 0.95117 0.46385 0.98081
O82 O 0.07712 0.39145 0.73081
O83 O 0.64952 0.01740 0.98081
O84 O 0.52357 0.08980 0.73081
O85 O 0.95117 0.51740 0.58834
O86 O 0.57712 0.08980 0.33834
O87 O 0.64952 0.96385 0.58834
O88 O 0.02357 0.39145 0.33834
O89 O 0.14952 0.01740 0.58834
O90 O 0.02357 0.08980 0.83834
O91 O 0.45117 0.46385 0.58834
O92 O 0.57712 0.39145 0.83834
O93 O 0.64952 0.46385 0.48081
O94 O 0.02357 0.89145 0.73081
O95 O 0.95117 0.01740 0.48081
O96 O 0.57712 0.58980 0.73081
Zr1 Zr 0.30035 0.99063 0.53457
Zr2 Zr 0.55035 0.74063 0.28457
Zr3 Zr 0.30035 0.49063 0.53457
Zr4 Zr 0.05035 0.74063 0.28457
Zr5 Zr 0.30035 0.99063 0.03457
Zr6 Zr 0.05035 0.74063 0.78457
Zr7 Zr 0.30035 0.49063 0.03457
Zr8 Zr 0.55035 0.74063 0.78457
Zr9 Zr 0.80035 0.49063 0.03457
Zr10 Zr 0.80035 0.99063 0.03457
Zr11 Zr 0.55035 0.24063 0.28457
Zr12 Zr 0.05035 0.24063 0.28457
Zr13 Zr 0.05035 0.24063 0.78457
Zr14 Zr 0.55035 0.24063 0.78457
Zr15 Zr 0.80035 0.49063 0.53457
Zr16 Zr 0.80035 0.99063 0.53457
La1 La 0.42772 0.99063 0.28457
La2 La 0.55035 0.86800 0.03457
La3 La 0.17298 0.49063 0.28457
La4 La 0.05035 0.61326 0.03457
La5 La 0.67298 0.49063 0.28457
La6 La 0.55035 0.61326 0.53457
La7 La 0.92772 0.99063 0.28457
La8 La 0.05035 0.86800 0.53457
La9 La 0.17298 0.99063 0.78457
La10 La 0.55035 0.36800 0.03457
La11 La 0.42772 0.49063 0.78457
La12 La 0.05035 0.11326 0.03457
La13 La 0.92772 0.49063 0.78457
La14 La 0.05035 0.36800 0.53457
La15 La 0.67298 0.99063 0.78457
La16 La 0.55035 0.11326 0.53457
La17 La 0.30035 0.74063 0.65957
La18 La 0.80035 0.74063 0.40957
La19 La 0.30035 0.24063 0.90957
La20 La 0.80035 0.74063 0.90957
La21 La 0.30035 0.74063 0.15957
La22 La 0.30035 0.24063 0.40957
La23 La 0.80035 0.24063 0.15957
La24 La 0.80035 0.24063 0.65957
#End of li7la3zr2o12
