data_li7la3zr2o12
_cell_length_a                      13.23607
_cell_length_b                      13.23607
_cell_length_c                      12.701706
_cell_angle_alpha                   90.0
_cell_angle_beta                    90.0
_cell_angle_gamma                   90.0
_symmetry_space_group_name_H-M      P1
loop_
_space_group_symop_id
_space_group_symop_operation_xyz
1 x,y,z
loop_
_atom_site_label
_atom_site_type_symbol
_atom_site_fract_x
_atom_site_fract_y
_atom_site_fract_z
X1 X 0.61990 0.62892 0.62050
X2 X 0.61816 0.63230 0.62177
X3 X 0.61646 0.63577 0.62287
X4 X 0.61481 0.63931 0.62377
X5 X 0.61326 0.64295 0.62430
X6 X 0.61150 0.64795 0.62425
X7 X 0.62185 0.62528 0.61899
X8 X 0.62365 0.62201 0.61750
X9 X 0.62548 0.61878 0.61595
X10 X 0.62734 0.61559 0.61435
X11 X 0.62924 0.61245 0.61270
X12 X 0.63113 0.60931 0.61105
X13 X 0.63305 0.60619 0.60937
X14 X 0.63499 0.60309 0.60768
X15 X 0.63694 0.60001 0.60598
X16 X 0.63891 0.59694 0.60428
X17 X 0.64090 0.59387 0.60259
X18 X 0.64291 0.59082 0.60091
X19 X 0.64494 0.58776 0.59926
X20 X 0.64698 0.58469 0.59764
X21 X 0.64906 0.58161 0.59609
X22 X 0.65121 0.57848 0.59480
X23 X 0.65335 0.57534 0.59351
X24 X 0.65555 0.57217 0.59242
X25 X 0.65781 0.56897 0.59161
X26 X 0.66014 0.56574 0.59119
X27 X 0.66253 0.56253 0.59124
X28 X 0.66495 0.55940 0.59181
X29 X 0.66739 0.55640 0.59287
X30 X 0.66981 0.55356 0.59435
X31 X 0.67220 0.55086 0.59615
X32 X 0.67456 0.54829 0.59819
X33 X 0.67688 0.54583 0.60041
X34 X 0.67916 0.54348 0.60280
X35 X 0.68144 0.54114 0.60520
X36 X 0.68370 0.53885 0.60768
X37 X 0.68596 0.53656 0.61015
X38 X 0.68823 0.53425 0.61259
X39 X 0.69053 0.53179 0.61484
X40 X 0.69284 0.52909 0.61674
X41 X 0.69502 0.52599 0.61807
X42 X 0.69676 0.52244 0.61873
X43 X 0.69788 0.51861 0.61888
X44 X 0.69816 0.51462 0.61869
X45 X 0.69803 0.51063 0.61845
X46 X 0.69771 0.50666 0.61822
X47 X 0.69724 0.50269 0.61802
X48 X 0.69667 0.49874 0.61788
X49 X 0.69605 0.49479 0.61788
X50 X 0.69543 0.49084 0.61788
X51 X 0.69480 0.48689 0.61796
X52 X 0.69417 0.48294 0.61813
X53 X 0.69357 0.47900 0.61840
X54 X 0.69298 0.47506 0.61876
X55 X 0.69242 0.47112 0.61919
X56 X 0.69191 0.46720 0.61977
X57 X 0.69143 0.46328 0.62045
X58 X 0.69098 0.45938 0.62122
X59 X 0.69056 0.45550 0.62211
X60 X 0.69017 0.45164 0.62312
X61 X 0.68978 0.44780 0.62423
X62 X 0.68940 0.44400 0.62546
X63 X 0.68898 0.44025 0.62682
X64 X 0.68844 0.43653 0.62826
X65 X 0.68718 0.43283 0.62911
X66 X 0.68492 0.42974 0.62790
X67 X 0.68258 0.42717 0.62585
X68 X 0.68025 0.42480 0.62354
X69 X 0.67791 0.42252 0.62114
X70 X 0.67557 0.42031 0.61867
X71 X 0.67320 0.41831 0.61604
X72 X 0.67082 0.41630 0.61342
X73 X 0.66842 0.41453 0.61065
X74 X 0.66600 0.41282 0.60785
X75 X 0.66358 0.41124 0.60497
X76 X 0.66115 0.40981 0.60202
X77 X 0.65872 0.40851 0.59900
X78 X 0.65629 0.40734 0.59592
X79 X 0.65386 0.40628 0.59281
X80 X 0.65143 0.40530 0.58966
X81 X 0.64899 0.40433 0.58652
X82 X 0.64653 0.40330 0.58341
X83 X 0.64405 0.40208 0.58040
X84 X 0.64154 0.40060 0.57755
X85 X 0.63902 0.39883 0.57489
X86 X 0.63651 0.39688 0.57237
X87 X 0.63399 0.39487 0.56990
X88 X 0.63146 0.39285 0.56746
X89 X 0.62890 0.39093 0.56496
X90 X 0.62633 0.38910 0.56240
X91 X 0.62371 0.38747 0.55975
X92 X 0.62109 0.38595 0.55704
X93 X 0.61843 0.38462 0.55425
X94 X 0.61577 0.38339 0.55142
X95 X 0.61310 0.38236 0.54851
X96 X 0.61043 0.38143 0.54556
X97 X 0.60779 0.38068 0.54254
X98 X 0.60517 0.38002 0.53946
X99 X 0.60262 0.37953 0.53630
X100 X 0.60011 0.37912 0.53308
X101 X 0.59772 0.37887 0.52975
X102 X 0.59540 0.37870 0.52636
X103 X 0.59321 0.37868 0.52287
X104 X 0.59110 0.37878 0.51933
X105 X 0.58902 0.37896 0.51578
X106 X 0.58685 0.37943 0.51232
X107 X 0.58376 0.38063 0.50946
X108 X 0.58119 0.38212 0.50874
X109 X 0.57797 0.38428 0.50772
X110 X 0.57494 0.38668 0.50666
X111 X 0.57208 0.38927 0.50556
X112 X 0.56932 0.39196 0.50446
X113 X 0.56670 0.39479 0.50334
X114 X 0.56417 0.39769 0.50223
X115 X 0.56175 0.40069 0.50113
X116 X 0.55941 0.40376 0.50004
X117 X 0.55717 0.40691 0.49897
X118 X 0.55499 0.41010 0.49792
X119 X 0.55289 0.41336 0.49689
X120 X 0.55087 0.41667 0.49588
X121 X 0.54891 0.42001 0.49484
X122 X 0.54696 0.42316 0.49327
X123 X 0.54486 0.42579 0.49102
X124 X 0.54226 0.42730 0.48828
X125 X 0.53930 0.42802 0.48557
X126 X 0.53623 0.42839 0.48294
X127 X 0.53312 0.42856 0.48032
X128 X 0.53000 0.42867 0.47771
X129 X 0.52689 0.42870 0.47510
X130 X 0.52379 0.42867 0.47247
X131 X 0.52070 0.42859 0.46983
X132 X 0.51764 0.42834 0.46717
X133 X 0.51458 0.42810 0.46450
X134 X 0.51156 0.42766 0.46180
X135 X 0.50855 0.42718 0.45910
X136 X 0.50558 0.42654 0.45640
X137 X 0.50263 0.42581 0.45369
X138 X 0.49972 0.42496 0.45097
X139 X 0.49681 0.42411 0.44826
X140 X 0.49397 0.42303 0.44555
X141 X 0.49118 0.42182 0.44285
X142 X 0.48844 0.42047 0.44016
X143 X 0.48576 0.41900 0.43747
X144 X 0.48313 0.41741 0.43481
X145 X 0.48056 0.41571 0.43216
X146 X 0.47804 0.41390 0.42953
X147 X 0.47556 0.41200 0.42692
X148 X 0.47313 0.41003 0.42433
X149 X 0.47073 0.40799 0.42177
X150 X 0.46835 0.40589 0.41923
X151 X 0.46599 0.40375 0.41671
X152 X 0.46364 0.40158 0.41422
X153 X 0.46128 0.39940 0.41173
X154 X 0.45893 0.39718 0.40929
X155 X 0.45655 0.39495 0.40687
X156 X 0.45416 0.39271 0.40449
X157 X 0.45173 0.39048 0.40213
X158 X 0.44926 0.38826 0.39981
X159 X 0.44675 0.38606 0.39752
X160 X 0.44419 0.38388 0.39527
X161 X 0.44156 0.38173 0.39307
X162 X 0.43887 0.37962 0.39091
X163 X 0.43610 0.37756 0.38880
X164 X 0.43334 0.37549 0.38670
X165 X 0.43043 0.37352 0.38471
X166 X 0.42742 0.37162 0.38281
X167 X 0.42431 0.36980 0.38100
X168 X 0.42110 0.36807 0.37931
X169 X 0.41776 0.36644 0.37776
X170 X 0.41429 0.36494 0.37640
X171 X 0.41075 0.36352 0.37515
X172 X 0.40698 0.36244 0.37437
X173 X 0.40310 0.36158 0.37389
X174 X 0.39799 0.36153 0.37427
X175 X 0.39322 0.36319 0.37436
X176 X 0.38956 0.36473 0.37385
X177 X 0.38602 0.36637 0.37295
X178 X 0.38255 0.36807 0.37187
X179 X 0.37916 0.36980 0.37060
Li1 Li 0.62149 0.62851 0.62500
Li2 Li 0.20344 0.87149 0.37500
Li3 Li 0.46046 0.95344 0.62500
Li4 Li 0.87851 0.71046 0.37500
Li5 Li 0.62149 0.45344 0.51329
Li6 Li 0.70344 0.71046 0.26329
Li7 Li 0.46046 0.12851 0.51329
Li8 Li 0.37851 0.87149 0.26329
Li9 Li 0.96046 0.95344 0.51329
Li10 Li 0.37851 0.71046 0.76329
Li11 Li 0.12149 0.62851 0.51329
Li12 Li 0.70344 0.87149 0.76329
Li13 Li 0.46046 0.62851 0.12500
Li14 Li 0.37851 0.37149 0.37500
Li15 Li 0.62149 0.95344 0.12500
Li16 Li 0.70344 0.21046 0.37500
Li17 Li 0.12149 0.12851 0.12500
Li18 Li 0.70344 0.37149 0.87500
Li19 Li 0.96046 0.45344 0.12500
Li20 Li 0.37851 0.21046 0.87500
Li21 Li 0.12149 0.95344 0.01329
Li22 Li 0.20344 0.21046 0.76329
Li23 Li 0.96046 0.62851 0.01329
Li24 Li 0.87851 0.37149 0.76329
Li25 Li 0.46046 0.45344 0.01329
Li26 Li 0.87851 0.21046 0.26329
Li27 Li 0.62149 0.12851 0.01329
Li28 Li 0.20344 0.37149 0.26329
Li29 Li 0.96046 0.12851 0.62500
Li30 Li 0.87851 0.87149 0.87500
Li31 Li 0.12149 0.45344 0.62500
Li32 Li 0.20344 0.71046 0.87500
Li33 Li 0.72219 0.97219 0.94414
Li34 Li 0.85976 0.97219 0.69414
Li35 Li 0.35976 0.60976 0.94414
Li36 Li 0.22219 0.60976 0.69414
Li37 Li 0.72219 0.10976 0.19414
Li38 Li 0.35976 0.47219 0.19414
Li39 Li 0.85976 0.60976 0.19414
Li40 Li 0.72219 0.60976 0.44414
Li41 Li 0.22219 0.97219 0.19414
Li42 Li 0.35976 0.97219 0.44414
Li43 Li 0.72219 0.47219 0.69414
Li44 Li 0.35976 0.10976 0.69414
Li45 Li 0.22219 0.47219 0.44414
Li46 Li 0.85976 0.10976 0.44414
Li47 Li 0.22219 0.10976 0.94414
Li48 Li 0.85976 0.47219 0.94414
Li49 Li 0.54097 0.79097 0.69414
Li50 Li 0.04097 0.79097 0.44414
Li51 Li 0.54097 0.29097 0.44414
Li52 Li 0.54097 0.79097 0.19414
Li53 Li 0.04097 0.29097 0.19414
Li54 Li 0.54097 0.29097 0.94414
Li55 Li 0.04097 0.79097 0.94414
Li56 Li 0.04097 0.29097 0.69414
O1 O 0.57559 0.98549 0.97285
O2 O 0.84646 0.82559 0.72285
O3 O 0.50636 0.59646 0.97285
O4 O 0.23549 0.75636 0.72285
O5 O 0.57559 0.09646 0.16544
O6 O 0.34646 0.75636 0.91544
O7 O 0.50636 0.48549 0.16544
O8 O 0.73549 0.82559 0.91544
O9 O 0.00636 0.59646 0.16544
O10 O 0.73549 0.75636 0.41544
O11 O 0.07559 0.98549 0.16544
O12 O 0.34646 0.82559 0.41544
O13 O 0.50636 0.98549 0.47285
O14 O 0.73549 0.32559 0.72285
O15 O 0.57559 0.59646 0.47285
O16 O 0.34646 0.25636 0.72285
O17 O 0.07559 0.48549 0.47285
O18 O 0.34646 0.32559 0.22285
O19 O 0.00636 0.09646 0.47285
O20 O 0.73549 0.25636 0.22285
O21 O 0.07559 0.59646 0.66544
O22 O 0.84646 0.25636 0.41544
O23 O 0.00636 0.98549 0.66544
O24 O 0.23549 0.32559 0.41544
O25 O 0.50636 0.09646 0.66544
O26 O 0.23549 0.25636 0.91544
O27 O 0.57559 0.48549 0.66544
O28 O 0.84646 0.32559 0.91544
O29 O 0.00636 0.48549 0.97285
O30 O 0.23549 0.82559 0.22285
O31 O 0.07559 0.09646 0.97285
O32 O 0.84646 0.75636 0.22285
O33 O 0.59594 0.18853 0.85348
O34 O 0.64342 0.84594 0.60348
O35 O 0.48601 0.39342 0.85348
O36 O 0.43853 0.73601 0.60348
O37 O 0.59594 0.89342 0.28481
O38 O 0.14342 0.73601 0.03481
O39 O 0.48601 0.68853 0.28481
O40 O 0.93853 0.84594 0.03481
O41 O 0.98601 0.39342 0.28481
O42 O 0.93853 0.73601 0.53481
O43 O 0.09594 0.18853 0.28481
O44 O 0.14342 0.84594 0.53481
O45 O 0.48601 0.18853 0.35348
O46 O 0.93853 0.34594 0.60348
O47 O 0.59594 0.39342 0.35348
O48 O 0.14342 0.23601 0.60348
O49 O 0.09594 0.68853 0.35348
O50 O 0.14342 0.34594 0.10348
O51 O 0.98601 0.89342 0.35348
O52 O 0.93853 0.23601 0.10348
O53 O 0.09594 0.39342 0.78481
O54 O 0.64342 0.23601 0.53481
O55 O 0.98601 0.18853 0.78481
O56 O 0.43853 0.34594 0.53481
O57 O 0.48601 0.89342 0.78481
O58 O 0.43853 0.23601 0.03481
O59 O 0.59594 0.68853 0.78481
O60 O 0.64342 0.34594 0.03481
O61 O 0.98601 0.68853 0.85348
O62 O 0.43853 0.84594 0.10348
O63 O 0.09594 0.89342 0.85348
O64 O 0.64342 0.73601 0.10348
O65 O 0.69180 0.01420 0.76538
O66 O 0.81775 0.94180 0.51538
O67 O 0.39015 0.56775 0.76538
O68 O 0.26420 0.64015 0.51538
O69 O 0.69180 0.06775 0.37291
O70 O 0.31775 0.64015 0.12291
O71 O 0.39015 0.51420 0.37291
O72 O 0.76420 0.94180 0.12291
O73 O 0.89015 0.56775 0.37291
O74 O 0.76420 0.64015 0.62291
O75 O 0.19180 0.01420 0.37291
O76 O 0.31775 0.94180 0.62291
O77 O 0.39015 0.01420 0.26538
O78 O 0.76420 0.44180 0.51538
O79 O 0.69180 0.56775 0.26538
O80 O 0.31775 0.14015 0.51538
O81 O 0.19180 0.51420 0.26538
O82 O 0.31775 0.44180 0.01538
O83 O 0.89015 0.06775 0.26538
O84 O 0.76420 0.14015 0.01538
O85 O 0.19180 0.56775 0.87291
O86 O 0.81775 0.14015 0.62291
O87 O 0.89015 0.01420 0.87291
O88 O 0.26420 0.44180 0.62291
O89 O 0.39015 0.06775 0.87291
O90 O 0.26420 0.14015 0.12291
O91 O 0.69180 0.51420 0.87291
O92 O 0.81775 0.44180 0.12291
O93 O 0.89015 0.51420 0.76538
O94 O 0.26420 0.94180 0.01538
O95 O 0.19180 0.06775 0.76538
O96 O 0.81775 0.64015 0.01538
Zr1 Zr 0.54097 0.04097 0.81914
Zr2 Zr 0.79097 0.79097 0.56914
Zr3 Zr 0.54097 0.54097 0.81914
Zr4 Zr 0.29097 0.79097 0.56914
Zr5 Zr 0.54097 0.04097 0.31914
Zr6 Zr 0.29097 0.79097 0.06914
Zr7 Zr 0.54097 0.54097 0.31914
Zr8 Zr 0.79097 0.79097 0.06914
Zr9 Zr 0.04097 0.54097 0.31914
Zr10 Zr 0.04097 0.04097 0.31914
Zr11 Zr 0.79097 0.29097 0.56914
Zr12 Zr 0.29097 0.29097 0.56914
Zr13 Zr 0.29097 0.29097 0.06914
Zr14 Zr 0.79097 0.29097 0.06914
Zr15 Zr 0.04097 0.54097 0.81914
Zr16 Zr 0.04097 0.04097 0.81914
La1 La 0.66834 0.04097 0.56914
La2 La 0.79097 0.91834 0.31914
La3 La 0.41361 0.54097 0.56914
La4 La 0.29097 0.66361 0.31914
La5 La 0.91361 0.54097 0.56914
La6 La 0.79097 0.66361 0.81914
La7 La 0.16834 0.04097 0.56914
La8 La 0.29097 0.91834 0.81914
La9 La 0.41361 0.04097 0.06914
La10 La 0.79097 0.41834 0.31914
La11 La 0.66834 0.54097 0.06914
La12 La 0.29097 0.16361 0.31914
La13 La 0.16834 0.54097 0.06914
La14 La 0.29097 0.41834 0.81914
La15 La 0.91361 0.04097 0.06914
La16 La 0.79097 0.16361 0.81914
La17 La 0.54097 0.79097 0.94414
La18 La 0.04097 0.79097 0.69414
La19 La 0.54097 0.29097 0.19414
La20 La 0.04097 0.79097 0.19414
La21 La 0.54097 0.79097 0.44414
La22 La 0.54097 0.29097 0.69414
La23 La 0.04097 0.29097 0.44414
La24 La 0.04097 0.29097 0.94414
#End of li7la3zr2o12
