data_li7la3zr2o12
_cell_length_a                      13.23607
_cell_length_b                      13.23607
_cell_length_c                      12.701706
_cell_angle_alpha                   90.0
_cell_angle_beta                    90.0
_cell_angle_gamma                   90.0
_symmetry_space_group_name_H-M      P1
loop_
_space_group_symop_id
_space_group_symop_operation_xyz
1 x,y,z
loop_
_atom_site_label
_atom_site_type_symbol
_atom_site_fract_x
_atom_site_fract_y
_atom_site_fract_z
X1 X 0.57895 0.58792 0.30137
X2 X 0.57721 0.59130 0.30264
X3 X 0.57551 0.59476 0.30375
X4 X 0.57386 0.59830 0.30465
X5 X 0.57231 0.60195 0.30518
X6 X 0.57053 0.60698 0.30513
X7 X 0.56622 0.60845 0.30565
X8 X 0.56230 0.60887 0.30635
X9 X 0.55838 0.60916 0.30711
X10 X 0.55448 0.60934 0.30800
X11 X 0.55060 0.60945 0.30901
X12 X 0.54676 0.60950 0.31016
X13 X 0.54300 0.60949 0.31156
X14 X 0.53923 0.60948 0.31297
X15 X 0.53552 0.60945 0.31451
X16 X 0.53185 0.60941 0.31617
X17 X 0.52824 0.60936 0.31796
X18 X 0.52468 0.60931 0.31986
X19 X 0.52118 0.60928 0.32187
X20 X 0.51772 0.60926 0.32396
X21 X 0.51431 0.60926 0.32614
X22 X 0.51095 0.60930 0.32839
X23 X 0.50763 0.60937 0.33071
X24 X 0.50438 0.60953 0.33313
X25 X 0.50113 0.60969 0.33554
X26 X 0.49791 0.60990 0.33801
X27 X 0.49473 0.61018 0.34052
X28 X 0.49159 0.61053 0.34307
X29 X 0.48848 0.61095 0.34565
X30 X 0.48540 0.61145 0.34826
X31 X 0.48237 0.61203 0.35090
X32 X 0.47937 0.61271 0.35357
X33 X 0.47642 0.61349 0.35626
X34 X 0.47351 0.61438 0.35897
X35 X 0.47070 0.61546 0.36170
X36 X 0.46788 0.61654 0.36443
X37 X 0.46512 0.61774 0.36718
X38 X 0.46241 0.61904 0.36993
X39 X 0.45976 0.62045 0.37268
X40 X 0.45717 0.62196 0.37543
X41 X 0.45463 0.62358 0.37817
X42 X 0.45215 0.62529 0.38091
X43 X 0.44972 0.62709 0.38364
X44 X 0.44734 0.62897 0.38635
X45 X 0.44501 0.63092 0.38905
X46 X 0.44271 0.63294 0.39174
X47 X 0.44044 0.63499 0.39441
X48 X 0.43821 0.63714 0.39705
X49 X 0.43598 0.63928 0.39970
X50 X 0.43379 0.64150 0.40230
X51 X 0.43160 0.64374 0.40490
X52 X 0.42943 0.64600 0.40748
X53 X 0.42729 0.64830 0.41005
X54 X 0.42520 0.65066 0.41262
X55 X 0.42316 0.65305 0.41519
X56 X 0.42139 0.65563 0.41779
X57 X 0.41988 0.65836 0.42039
X58 X 0.41907 0.66143 0.42292
X59 X 0.41861 0.66466 0.42533
X60 X 0.41854 0.66811 0.42744
X61 X 0.41850 0.67163 0.42942
X62 X 0.41842 0.67524 0.43119
X63 X 0.41826 0.67891 0.43285
X64 X 0.41799 0.68261 0.43439
X65 X 0.41758 0.68634 0.43582
X66 X 0.41698 0.69009 0.43713
X67 X 0.41585 0.69515 0.43867
X68 X 0.41567 0.69357 0.44328
X69 X 0.41544 0.69218 0.44718
X70 X 0.41517 0.69069 0.45103
X71 X 0.41481 0.68901 0.45479
X72 X 0.41439 0.68723 0.45850
X73 X 0.41385 0.68527 0.46209
X74 X 0.41325 0.68325 0.46563
X75 X 0.41254 0.68111 0.46907
X76 X 0.41168 0.67886 0.47240
X77 X 0.41075 0.67658 0.47567
X78 X 0.40964 0.67423 0.47884
X79 X 0.40846 0.67186 0.48196
X80 X 0.40709 0.66946 0.48498
X81 X 0.40564 0.66705 0.48794
X82 X 0.40402 0.66464 0.49080
X83 X 0.40232 0.66222 0.49360
X84 X 0.40051 0.65980 0.49633
X85 X 0.39868 0.65738 0.49905
X86 X 0.39695 0.65496 0.50183
X87 X 0.39548 0.65253 0.50477
X88 X 0.39422 0.65012 0.50781
X89 X 0.39329 0.64773 0.51101
X90 X 0.39251 0.64537 0.51427
X91 X 0.39174 0.64300 0.51753
X92 X 0.39098 0.64064 0.52080
X93 X 0.39014 0.63827 0.52404
X94 X 0.38919 0.63589 0.52724
X95 X 0.38810 0.63349 0.53037
X96 X 0.38686 0.63109 0.53344
X97 X 0.38546 0.62867 0.53642
X98 X 0.38392 0.62626 0.53933
X99 X 0.38225 0.62384 0.54215
X100 X 0.38044 0.62144 0.54490
X101 X 0.37857 0.61904 0.54760
X102 X 0.37650 0.61665 0.55016
X103 X 0.37443 0.61427 0.55272
X104 X 0.37220 0.61191 0.55514
X105 X 0.36993 0.60954 0.55752
X106 X 0.36754 0.60713 0.55973
X107 X 0.36505 0.60467 0.56175
X108 X 0.36156 0.60196 0.56250
X109 X 0.36105 0.59880 0.56294
X110 X 0.36140 0.59483 0.56331
X111 X 0.36182 0.59087 0.56362
X112 X 0.36223 0.58690 0.56391
X113 X 0.36257 0.58293 0.56425
X114 X 0.36282 0.57896 0.56464
X115 X 0.36296 0.57499 0.56512
X116 X 0.36303 0.57102 0.56564
X117 X 0.36297 0.56707 0.56626
X118 X 0.36284 0.56313 0.56693
X119 X 0.36259 0.55920 0.56769
X120 X 0.36228 0.55529 0.56848
X121 X 0.36177 0.55143 0.56945
X122 X 0.36125 0.54758 0.57041
X123 X 0.36054 0.54380 0.57154
X124 X 0.35978 0.54004 0.57271
X125 X 0.35891 0.53633 0.57399
X126 X 0.35799 0.53266 0.57533
X127 X 0.35697 0.52906 0.57680
X128 X 0.35589 0.52551 0.57835
X129 X 0.35472 0.52206 0.58007
X130 X 0.35352 0.51867 0.58189
X131 X 0.35229 0.51537 0.58385
X132 X 0.35105 0.51215 0.58596
X133 X 0.34983 0.50903 0.58823
X134 X 0.34864 0.50602 0.59069
X135 X 0.34746 0.50302 0.59314
X136 X 0.34645 0.50026 0.59597
X137 X 0.34561 0.49768 0.59903
X138 X 0.34502 0.49529 0.60231
X139 X 0.34477 0.49313 0.60581
X140 X 0.34490 0.49121 0.60946
X141 X 0.34569 0.48970 0.61323
X142 X 0.34687 0.48840 0.61697
X143 X 0.34860 0.48733 0.62056
X144 X 0.35049 0.48622 0.62404
X145 X 0.35254 0.48494 0.62736
X146 X 0.35476 0.48332 0.63038
X147 X 0.35719 0.48107 0.63272
X148 X 0.35968 0.47860 0.63474
X149 X 0.36218 0.47596 0.63644
X150 X 0.36470 0.47319 0.63791
X151 X 0.36721 0.47034 0.63921
X152 X 0.36972 0.46749 0.64050
X153 X 0.37223 0.46463 0.64182
X154 X 0.37472 0.46180 0.64318
X155 X 0.37721 0.45898 0.64461
X156 X 0.37968 0.45619 0.64611
X157 X 0.38216 0.45340 0.64762
X158 X 0.38460 0.45068 0.64929
X159 X 0.38703 0.44799 0.65105
X160 X 0.38943 0.44534 0.65291
X161 X 0.39181 0.44273 0.65486
X162 X 0.39416 0.44016 0.65690
X163 X 0.39649 0.43762 0.65902
X164 X 0.39879 0.43512 0.66122
X165 X 0.40107 0.43265 0.66348
X166 X 0.40331 0.43021 0.66581
X167 X 0.40553 0.42778 0.66818
X168 X 0.40774 0.42535 0.67055
X169 X 0.40990 0.42295 0.67300
X170 X 0.41203 0.42054 0.67548
X171 X 0.41413 0.41810 0.67795
X172 X 0.41619 0.41563 0.68042
X173 X 0.41822 0.41310 0.68286
X174 X 0.42021 0.41048 0.68523
X175 X 0.42214 0.40773 0.68750
X176 X 0.42403 0.40491 0.68968
X177 X 0.42582 0.40186 0.69163
X178 X 0.42745 0.39855 0.69322
X179 X 0.42887 0.39499 0.69442
X180 X 0.42947 0.39302 0.69487
X181 X 0.42769 0.39805 0.69482
X182 X 0.42614 0.40170 0.69535
X183 X 0.42449 0.40524 0.69625
X184 X 0.42279 0.40870 0.69736
X185 X 0.42105 0.41208 0.69863
Li1 Li 0.58052 0.58753 0.30586
Li2 Li 0.16247 0.83052 0.05586
Li3 Li 0.41948 0.91247 0.30586
Li4 Li 0.83753 0.66948 0.05586
Li5 Li 0.58052 0.41247 0.19414
Li6 Li 0.66247 0.66948 0.94414
Li7 Li 0.41948 0.08753 0.19414
Li8 Li 0.33753 0.83052 0.94414
Li9 Li 0.91948 0.91247 0.19414
Li10 Li 0.33753 0.66948 0.44414
Li11 Li 0.08052 0.58753 0.19414
Li12 Li 0.66247 0.83052 0.44414
Li13 Li 0.41948 0.58753 0.80586
Li14 Li 0.33753 0.33052 0.05586
Li15 Li 0.58052 0.91247 0.80586
Li16 Li 0.66247 0.16948 0.05586
Li17 Li 0.08052 0.08753 0.80586
Li18 Li 0.66247 0.33052 0.55586
Li19 Li 0.91948 0.41247 0.80586
Li20 Li 0.33753 0.16948 0.55586
Li21 Li 0.08052 0.91247 0.69414
Li22 Li 0.16247 0.16948 0.44414
Li23 Li 0.91948 0.58753 0.69414
Li24 Li 0.83753 0.33052 0.44414
Li25 Li 0.41948 0.41247 0.69414
Li26 Li 0.83753 0.16948 0.94414
Li27 Li 0.58052 0.08753 0.69414
Li28 Li 0.16247 0.33052 0.94414
Li29 Li 0.91948 0.08753 0.30586
Li30 Li 0.83753 0.83052 0.55586
Li31 Li 0.08052 0.41247 0.30586
Li32 Li 0.16247 0.66948 0.55586
Li33 Li 0.68121 0.93121 0.62500
Li34 Li 0.81879 0.93121 0.37500
Li35 Li 0.31879 0.56879 0.62500
Li36 Li 0.18121 0.56879 0.37500
Li37 Li 0.68121 0.06879 0.87500
Li38 Li 0.31879 0.43121 0.87500
Li39 Li 0.81879 0.56879 0.87500
Li40 Li 0.68121 0.56879 0.12500
Li41 Li 0.18121 0.93121 0.87500
Li42 Li 0.31879 0.93121 0.12500
Li43 Li 0.68121 0.43121 0.37500
Li44 Li 0.31879 0.06879 0.37500
Li45 Li 0.18121 0.43121 0.12500
Li46 Li 0.81879 0.06879 0.12500
Li47 Li 0.18121 0.06879 0.62500
Li48 Li 0.81879 0.43121 0.62500
Li49 Li 0.50000 0.75000 0.37500
Li50 Li 0.00000 0.75000 0.12500
Li51 Li 0.50000 0.25000 0.12500
Li52 Li 0.50000 0.75000 0.87500
Li53 Li 0.00000 0.25000 0.87500
Li54 Li 0.50000 0.25000 0.62500
Li55 Li 0.00000 0.75000 0.62500
Li56 Li 0.00000 0.25000 0.37500
O1 O 0.53462 0.94452 0.65370
O2 O 0.80548 0.78462 0.40370
O3 O 0.46538 0.55548 0.65370
O4 O 0.19452 0.71538 0.40370
O5 O 0.53462 0.05548 0.84630
O6 O 0.30548 0.71538 0.59630
O7 O 0.46538 0.44452 0.84630
O8 O 0.69452 0.78462 0.59630
O9 O 0.96538 0.55548 0.84630
O10 O 0.69452 0.71538 0.09630
O11 O 0.03462 0.94452 0.84630
O12 O 0.30548 0.78462 0.09630
O13 O 0.46538 0.94452 0.15370
O14 O 0.69452 0.28462 0.40370
O15 O 0.53462 0.55548 0.15370
O16 O 0.30548 0.21538 0.40370
O17 O 0.03462 0.44452 0.15370
O18 O 0.30548 0.28462 0.90370
O19 O 0.96538 0.05548 0.15370
O20 O 0.69452 0.21538 0.90370
O21 O 0.03462 0.55548 0.34630
O22 O 0.80548 0.21538 0.09630
O23 O 0.96538 0.94452 0.34630
O24 O 0.19452 0.28462 0.09630
O25 O 0.46538 0.05548 0.34630
O26 O 0.19452 0.21538 0.59630
O27 O 0.53462 0.44452 0.34630
O28 O 0.80548 0.28462 0.59630
O29 O 0.96538 0.44452 0.65370
O30 O 0.19452 0.78462 0.90370
O31 O 0.03462 0.05548 0.65370
O32 O 0.80548 0.71538 0.90370
O33 O 0.55496 0.14756 0.53433
O34 O 0.60244 0.80496 0.28433
O35 O 0.44504 0.35244 0.53433
O36 O 0.39756 0.69504 0.28433
O37 O 0.55496 0.85244 0.96567
O38 O 0.10244 0.69504 0.71567
O39 O 0.44504 0.64756 0.96567
O40 O 0.89756 0.80496 0.71567
O41 O 0.94504 0.35244 0.96567
O42 O 0.89756 0.69504 0.21567
O43 O 0.05496 0.14756 0.96567
O44 O 0.10244 0.80496 0.21567
O45 O 0.44504 0.14756 0.03433
O46 O 0.89756 0.30496 0.28433
O47 O 0.55496 0.35244 0.03433
O48 O 0.10244 0.19504 0.28433
O49 O 0.05496 0.64756 0.03433
O50 O 0.10244 0.30496 0.78433
O51 O 0.94504 0.85244 0.03433
O52 O 0.89756 0.19504 0.78433
O53 O 0.05496 0.35244 0.46567
O54 O 0.60244 0.19504 0.21567
O55 O 0.94504 0.14756 0.46567
O56 O 0.39756 0.30496 0.21567
O57 O 0.44504 0.85244 0.46567
O58 O 0.39756 0.19504 0.71567
O59 O 0.55496 0.64756 0.46567
O60 O 0.60244 0.30496 0.71567
O61 O 0.94504 0.64756 0.53433
O62 O 0.39756 0.80496 0.78433
O63 O 0.05496 0.85244 0.53433
O64 O 0.60244 0.69504 0.78433
O65 O 0.65082 0.97323 0.44624
O66 O 0.77677 0.90082 0.19624
O67 O 0.34918 0.52677 0.44624
O68 O 0.22323 0.59918 0.19624
O69 O 0.65082 0.02677 0.05376
O70 O 0.27677 0.59918 0.80376
O71 O 0.34918 0.47323 0.05376
O72 O 0.72323 0.90082 0.80376
O73 O 0.84918 0.52677 0.05376
O74 O 0.72323 0.59918 0.30376
O75 O 0.15082 0.97323 0.05376
O76 O 0.27677 0.90082 0.30376
O77 O 0.34918 0.97323 0.94624
O78 O 0.72323 0.40082 0.19624
O79 O 0.65082 0.52677 0.94624
O80 O 0.27677 0.09918 0.19624
O81 O 0.15082 0.47323 0.94624
O82 O 0.27677 0.40082 0.69624
O83 O 0.84918 0.02677 0.94624
O84 O 0.72323 0.09918 0.69624
O85 O 0.15082 0.52677 0.55376
O86 O 0.77677 0.09918 0.30376
O87 O 0.84918 0.97323 0.55376
O88 O 0.22323 0.40082 0.30376
O89 O 0.34918 0.02677 0.55376
O90 O 0.22323 0.09918 0.80376
O91 O 0.65082 0.47323 0.55376
O92 O 0.77677 0.40082 0.80376
O93 O 0.84918 0.47323 0.44624
O94 O 0.22323 0.90082 0.69624
O95 O 0.15082 0.02677 0.44624
O96 O 0.77677 0.59918 0.69624
Zr1 Zr 0.50000 0.00000 0.50000
Zr2 Zr 0.75000 0.75000 0.25000
Zr3 Zr 0.50000 0.50000 0.50000
Zr4 Zr 0.25000 0.75000 0.25000
Zr5 Zr 0.50000 0.00000 0.00000
Zr6 Zr 0.25000 0.75000 0.75000
Zr7 Zr 0.50000 0.50000 0.00000
Zr8 Zr 0.75000 0.75000 0.75000
Zr9 Zr 0.00000 0.50000 0.00000
Zr10 Zr 0.00000 0.00000 0.00000
Zr11 Zr 0.75000 0.25000 0.25000
Zr12 Zr 0.25000 0.25000 0.25000
Zr13 Zr 0.25000 0.25000 0.75000
Zr14 Zr 0.75000 0.25000 0.75000
Zr15 Zr 0.00000 0.50000 0.50000
Zr16 Zr 0.00000 0.00000 0.50000
La1 La 0.62737 0.00000 0.25000
La2 La 0.75000 0.87737 0.00000
La3 La 0.37263 0.50000 0.25000
La4 La 0.25000 0.62263 0.00000
La5 La 0.87263 0.50000 0.25000
La6 La 0.75000 0.62263 0.50000
La7 La 0.12737 0.00000 0.25000
La8 La 0.25000 0.87737 0.50000
La9 La 0.37263 0.00000 0.75000
La10 La 0.75000 0.37737 0.00000
La11 La 0.62737 0.50000 0.75000
La12 La 0.25000 0.12263 0.00000
La13 La 0.12737 0.50000 0.75000
La14 La 0.25000 0.37737 0.50000
La15 La 0.87263 0.00000 0.75000
La16 La 0.75000 0.12263 0.50000
La17 La 0.50000 0.75000 0.62500
La18 La 0.00000 0.75000 0.37500
La19 La 0.50000 0.25000 0.87500
La20 La 0.00000 0.75000 0.87500
La21 La 0.50000 0.75000 0.12500
La22 La 0.50000 0.25000 0.37500
La23 La 0.00000 0.25000 0.12500
La24 La 0.00000 0.25000 0.62500
#End of li7la3zr2o12
