data_li7la3zr2o12
_cell_length_a                      13.23607
_cell_length_b                      13.23607
_cell_length_c                      12.701706
_cell_angle_alpha                   90.0
_cell_angle_beta                    90.0
_cell_angle_gamma                   90.0
_symmetry_space_group_name_H-M      P1
loop_
_space_group_symop_id
_space_group_symop_operation_xyz
1 x,y,z
loop_
_atom_site_label
_atom_site_type_symbol
_atom_site_fract_x
_atom_site_fract_y
_atom_site_fract_z
X1 X 0.53857 0.41940 0.71100
X2 X 0.54034 0.41608 0.70961
X3 X 0.54217 0.41285 0.70806
X4 X 0.54399 0.40961 0.70652
X5 X 0.54584 0.40642 0.70492
X6 X 0.54771 0.40326 0.70327
X7 X 0.54960 0.40013 0.70159
X8 X 0.55152 0.39702 0.69988
X9 X 0.55345 0.39394 0.69815
X10 X 0.55539 0.39088 0.69640
X11 X 0.55736 0.38784 0.69463
X12 X 0.55934 0.38482 0.69285
X13 X 0.56133 0.38181 0.69104
X14 X 0.56335 0.37886 0.68919
X15 X 0.56537 0.37590 0.68734
X16 X 0.56741 0.37297 0.68545
X17 X 0.56946 0.37009 0.68352
X18 X 0.57152 0.36726 0.68151
X19 X 0.57361 0.36451 0.67941
X20 X 0.57572 0.36188 0.67717
X21 X 0.57787 0.35944 0.67475
X22 X 0.58006 0.35727 0.67210
X23 X 0.58230 0.35547 0.66920
X24 X 0.58456 0.35412 0.66606
X25 X 0.58685 0.35327 0.66276
X26 X 0.58912 0.35287 0.65936
X27 X 0.59137 0.35284 0.65591
X28 X 0.59359 0.35311 0.65246
X29 X 0.59579 0.35361 0.64902
X30 X 0.59795 0.35429 0.64559
X31 X 0.60009 0.35511 0.64217
X32 X 0.60221 0.35603 0.63877
X33 X 0.60431 0.35703 0.63538
X34 X 0.60640 0.35809 0.63201
X35 X 0.60849 0.35916 0.62863
X36 X 0.61059 0.36020 0.62527
X37 X 0.61282 0.36106 0.62192
X38 X 0.61514 0.36176 0.61861
X39 X 0.61791 0.36197 0.61561
X40 X 0.62095 0.36194 0.61290
X41 X 0.62447 0.36168 0.61096
X42 X 0.62815 0.36141 0.60934
X43 X 0.63195 0.36120 0.60808
X44 X 0.63581 0.36108 0.60698
X45 X 0.63968 0.36104 0.60594
X46 X 0.64355 0.36109 0.60492
X47 X 0.64741 0.36127 0.60383
X48 X 0.65127 0.36145 0.60275
X49 X 0.65508 0.36176 0.60156
X50 X 0.65887 0.36214 0.60028
X51 X 0.66262 0.36259 0.59891
X52 X 0.66633 0.36310 0.59746
X53 X 0.66998 0.36370 0.59588
X54 X 0.67357 0.36437 0.59418
X55 X 0.67707 0.36513 0.59234
X56 X 0.68049 0.36597 0.59036
X57 X 0.68381 0.36690 0.58825
X58 X 0.68703 0.36793 0.58602
X59 X 0.69013 0.36909 0.58369
X60 X 0.69309 0.37046 0.58128
X61 X 0.69593 0.37208 0.57889
X62 X 0.69860 0.37414 0.57665
X63 X 0.70113 0.37653 0.57459
X64 X 0.70314 0.37967 0.57307
X65 X 0.70515 0.38280 0.57155
X66 X 0.70669 0.38630 0.57032
X67 X 0.70814 0.38982 0.56906
X68 X 0.70946 0.39339 0.56777
X69 X 0.71061 0.39699 0.56643
X70 X 0.71163 0.40060 0.56498
X71 X 0.71253 0.40418 0.56340
X72 X 0.71332 0.40771 0.56161
X73 X 0.71403 0.41110 0.55954
X74 X 0.71493 0.41537 0.55594
X75 X 0.71569 0.41851 0.55131
X76 X 0.71605 0.42031 0.54761
X77 X 0.71615 0.42171 0.54371
X78 X 0.71607 0.42287 0.53972
X79 X 0.71574 0.42375 0.53567
X80 X 0.71525 0.42445 0.53160
X81 X 0.71454 0.42492 0.52753
X82 X 0.71370 0.42524 0.52347
X83 X 0.71274 0.42545 0.51943
X84 X 0.71164 0.42551 0.51543
X85 X 0.71048 0.42549 0.51144
X86 X 0.70909 0.42526 0.50754
X87 X 0.70770 0.42502 0.50364
X88 X 0.70611 0.42458 0.49985
X89 X 0.70447 0.42410 0.49608
X90 X 0.70272 0.42352 0.49238
X91 X 0.70092 0.42288 0.48873
X92 X 0.69900 0.42215 0.48515
X93 X 0.69702 0.42136 0.48163
X94 X 0.69492 0.42050 0.47819
X95 X 0.69277 0.41960 0.47481
X96 X 0.69049 0.41864 0.47154
X97 X 0.68813 0.41768 0.46833
X98 X 0.68555 0.41678 0.46529
X99 X 0.68355 0.41631 0.46325
X100 X 0.67890 0.41810 0.46103
X101 X 0.67517 0.41932 0.46023
X102 X 0.67140 0.42052 0.45961
X103 X 0.66757 0.42163 0.45926
X104 X 0.66374 0.42273 0.45896
X105 X 0.65988 0.42377 0.45879
X106 X 0.65601 0.42475 0.45873
X107 X 0.65212 0.42569 0.45876
X108 X 0.64822 0.42654 0.45897
X109 X 0.64431 0.42734 0.45924
X110 X 0.64040 0.42807 0.45966
X111 X 0.63649 0.42875 0.46016
X112 X 0.63258 0.42940 0.46072
X113 X 0.62870 0.42995 0.46151
X114 X 0.62481 0.43050 0.46230
X115 X 0.62096 0.43096 0.46332
X116 X 0.61713 0.43142 0.46440
X117 X 0.61333 0.43186 0.46561
X118 X 0.60956 0.43232 0.46692
X119 X 0.60583 0.43281 0.46835
X120 X 0.60219 0.43342 0.46992
X121 X 0.59699 0.43474 0.47232
X122 X 0.59431 0.43678 0.47164
X123 X 0.59177 0.43919 0.46964
X124 X 0.58939 0.44155 0.46738
X125 X 0.58705 0.44389 0.46503
X126 X 0.58488 0.44624 0.46253
X127 X 0.58272 0.44859 0.46003
X128 X 0.58072 0.45097 0.45740
X129 X 0.57877 0.45335 0.45474
X130 X 0.57694 0.45574 0.45200
X131 X 0.57522 0.45814 0.44919
X132 X 0.57363 0.46054 0.44631
X133 X 0.57216 0.46295 0.44335
X134 X 0.57084 0.46535 0.44032
X135 X 0.56965 0.46774 0.43722
X136 X 0.56858 0.47013 0.43407
X137 X 0.56761 0.47251 0.43088
X138 X 0.56670 0.47488 0.42766
X139 X 0.56582 0.47725 0.42443
X140 X 0.56495 0.47961 0.42120
X141 X 0.56400 0.48199 0.41800
X142 X 0.56291 0.48438 0.41486
X143 X 0.56162 0.48679 0.41182
X144 X 0.56014 0.48920 0.40887
X145 X 0.55852 0.49161 0.40601
X146 X 0.55685 0.49402 0.40317
X147 X 0.55518 0.49642 0.40033
X148 X 0.55357 0.49881 0.39745
X149 X 0.55204 0.50121 0.39452
X150 X 0.55060 0.50359 0.39152
X151 X 0.54917 0.50597 0.38853
X152 X 0.54794 0.50833 0.38542
X153 X 0.54681 0.51066 0.38225
X154 X 0.54578 0.51297 0.37902
X155 X 0.54484 0.51524 0.37573
X156 X 0.54398 0.51747 0.37239
X157 X 0.54318 0.51966 0.36901
X158 X 0.54243 0.52180 0.36558
X159 X 0.54170 0.52391 0.36212
X160 X 0.54097 0.52598 0.35864
X161 X 0.54019 0.52802 0.35515
X162 X 0.53942 0.53007 0.35166
X163 X 0.53846 0.53211 0.34822
X164 X 0.53722 0.53420 0.34492
X165 X 0.53566 0.53635 0.34181
X166 X 0.53375 0.53854 0.33894
X167 X 0.53131 0.54070 0.33652
X168 X 0.52870 0.54279 0.33424
X169 X 0.52593 0.54480 0.33209
X170 X 0.52303 0.54672 0.33002
X171 X 0.52005 0.54850 0.32796
X172 X 0.51707 0.55028 0.32591
X173 X 0.51406 0.55198 0.32381
X174 X 0.51106 0.55365 0.32167
X175 X 0.50806 0.55529 0.31951
X176 X 0.50506 0.55691 0.31733
X177 X 0.50208 0.55853 0.31513
X178 X 0.49910 0.56014 0.31292
X179 X 0.49612 0.56174 0.31069
X180 X 0.49315 0.56334 0.30846
X181 X 0.49018 0.56493 0.30622
X182 X 0.48721 0.56653 0.30398
X183 X 0.48424 0.56812 0.30175
X184 X 0.48126 0.56972 0.29951
X185 X 0.47829 0.57131 0.29727
X186 X 0.47531 0.57291 0.29505
X187 X 0.47232 0.57451 0.29285
X188 X 0.46931 0.57612 0.29067
X189 X 0.46628 0.57774 0.28855
X190 X 0.46322 0.57937 0.28647
Li1 Li 0.54026 0.41877 0.71543
Li2 Li 0.12221 0.66175 0.46543
Li3 Li 0.37923 0.74370 0.71543
Li4 Li 0.79728 0.50072 0.46543
Li5 Li 0.54026 0.24370 0.60372
Li6 Li 0.62221 0.50072 0.35372
Li7 Li 0.37923 0.91877 0.60372
Li8 Li 0.29728 0.66175 0.35372
Li9 Li 0.87923 0.74370 0.60372
Li10 Li 0.29728 0.50072 0.85372
Li11 Li 0.04026 0.41877 0.60372
Li12 Li 0.62221 0.66175 0.85372
Li13 Li 0.37923 0.41877 0.21543
Li14 Li 0.29728 0.16175 0.46543
Li15 Li 0.54026 0.74370 0.21543
Li16 Li 0.62221 0.00072 0.46543
Li17 Li 0.04026 0.91877 0.21543
Li18 Li 0.62221 0.16175 0.96543
Li19 Li 0.87923 0.24370 0.21543
Li20 Li 0.29728 0.00072 0.96543
Li21 Li 0.04026 0.74370 0.10372
Li22 Li 0.12221 0.00072 0.85372
Li23 Li 0.87923 0.41877 0.10372
Li24 Li 0.79728 0.16175 0.85372
Li25 Li 0.37923 0.24370 0.10372
Li26 Li 0.79728 0.00072 0.35372
Li27 Li 0.54026 0.91877 0.10372
Li28 Li 0.12221 0.16175 0.35372
Li29 Li 0.87923 0.91877 0.71543
Li30 Li 0.79728 0.66175 0.96543
Li31 Li 0.04026 0.24370 0.71543
Li32 Li 0.12221 0.50072 0.96543
Li33 Li 0.64095 0.76244 0.03457
Li34 Li 0.77853 0.76244 0.78457
Li35 Li 0.27853 0.40002 0.03457
Li36 Li 0.14095 0.40002 0.78457
Li37 Li 0.64095 0.90002 0.28457
Li38 Li 0.27853 0.26244 0.28457
Li39 Li 0.77853 0.40002 0.28457
Li40 Li 0.64095 0.40002 0.53457
Li41 Li 0.14095 0.76244 0.28457
Li42 Li 0.27853 0.76244 0.53457
Li43 Li 0.64095 0.26244 0.78457
Li44 Li 0.27853 0.90002 0.78457
Li45 Li 0.14095 0.26244 0.53457
Li46 Li 0.77853 0.90002 0.53457
Li47 Li 0.14095 0.90002 0.03457
Li48 Li 0.77853 0.26244 0.03457
Li49 Li 0.45974 0.58123 0.78457
Li50 Li 0.95974 0.58123 0.53457
Li51 Li 0.45974 0.08123 0.53457
Li52 Li 0.45974 0.58123 0.28457
Li53 Li 0.95974 0.08123 0.28457
Li54 Li 0.45974 0.08123 0.03457
Li55 Li 0.95974 0.58123 0.03457
Li56 Li 0.95974 0.08123 0.78457
O1 O 0.49436 0.77575 0.06328
O2 O 0.76523 0.61585 0.81328
O3 O 0.42513 0.38672 0.06328
O4 O 0.15426 0.54662 0.81328
O5 O 0.49436 0.88672 0.25587
O6 O 0.26523 0.54662 0.00587
O7 O 0.42513 0.27575 0.25587
O8 O 0.65426 0.61585 0.00587
O9 O 0.92513 0.38672 0.25587
O10 O 0.65426 0.54662 0.50587
O11 O 0.99436 0.77575 0.25587
O12 O 0.26523 0.61585 0.50587
O13 O 0.42513 0.77575 0.56328
O14 O 0.65426 0.11585 0.81328
O15 O 0.49436 0.38672 0.56328
O16 O 0.26523 0.04662 0.81328
O17 O 0.99436 0.27575 0.56328
O18 O 0.26523 0.11585 0.31328
O19 O 0.92513 0.88672 0.56328
O20 O 0.65426 0.04662 0.31328
O21 O 0.99436 0.38672 0.75587
O22 O 0.76523 0.04662 0.50587
O23 O 0.92513 0.77575 0.75587
O24 O 0.15426 0.11585 0.50587
O25 O 0.42513 0.88672 0.75587
O26 O 0.15426 0.04662 0.00587
O27 O 0.49436 0.27575 0.75587
O28 O 0.76523 0.11585 0.00587
O29 O 0.92513 0.27575 0.06328
O30 O 0.15426 0.61585 0.31328
O31 O 0.99436 0.88672 0.06328
O32 O 0.76523 0.54662 0.31328
O33 O 0.51471 0.97879 0.94390
O34 O 0.56219 0.63620 0.69390
O35 O 0.40478 0.18368 0.94390
O36 O 0.35730 0.52627 0.69390
O37 O 0.51471 0.68368 0.37524
O38 O 0.06219 0.52627 0.12524
O39 O 0.40478 0.47879 0.37524
O40 O 0.85730 0.63620 0.12524
O41 O 0.90478 0.18368 0.37524
O42 O 0.85730 0.52627 0.62524
O43 O 0.01471 0.97879 0.37524
O44 O 0.06219 0.63620 0.62524
O45 O 0.40478 0.97879 0.44390
O46 O 0.85730 0.13620 0.69390
O47 O 0.51471 0.18368 0.44390
O48 O 0.06219 0.02627 0.69390
O49 O 0.01471 0.47879 0.44390
O50 O 0.06219 0.13620 0.19390
O51 O 0.90478 0.68368 0.44390
O52 O 0.85730 0.02627 0.19390
O53 O 0.01471 0.18368 0.87524
O54 O 0.56219 0.02627 0.62524
O55 O 0.90478 0.97879 0.87524
O56 O 0.35730 0.13620 0.62524
O57 O 0.40478 0.68368 0.87524
O58 O 0.35730 0.02627 0.12524
O59 O 0.51471 0.47879 0.87524
O60 O 0.56219 0.13620 0.12524
O61 O 0.90478 0.47879 0.94390
O62 O 0.35730 0.63620 0.19390
O63 O 0.01471 0.68368 0.94390
O64 O 0.56219 0.52627 0.19390
O65 O 0.61057 0.80446 0.85581
O66 O 0.73652 0.73206 0.60581
O67 O 0.30892 0.35801 0.85581
O68 O 0.18297 0.43041 0.60581
O69 O 0.61057 0.85801 0.46334
O70 O 0.23652 0.43041 0.21334
O71 O 0.30892 0.30446 0.46334
O72 O 0.68297 0.73206 0.21334
O73 O 0.80892 0.35801 0.46334
O74 O 0.68297 0.43041 0.71334
O75 O 0.11057 0.80446 0.46334
O76 O 0.23652 0.73206 0.71334
O77 O 0.30892 0.80446 0.35581
O78 O 0.68297 0.23206 0.60581
O79 O 0.61057 0.35801 0.35581
O80 O 0.23652 0.93041 0.60581
O81 O 0.11057 0.30446 0.35581
O82 O 0.23652 0.23206 0.10581
O83 O 0.80892 0.85801 0.35581
O84 O 0.68297 0.93041 0.10581
O85 O 0.11057 0.35801 0.96334
O86 O 0.73652 0.93041 0.71334
O87 O 0.80892 0.80446 0.96334
O88 O 0.18297 0.23206 0.71334
O89 O 0.30892 0.85801 0.96334
O90 O 0.18297 0.93041 0.21334
O91 O 0.61057 0.30446 0.96334
O92 O 0.73652 0.23206 0.21334
O93 O 0.80892 0.30446 0.85581
O94 O 0.18297 0.73206 0.10581
O95 O 0.11057 0.85801 0.85581
O96 O 0.73652 0.43041 0.10581
Zr1 Zr 0.45974 0.83123 0.90957
Zr2 Zr 0.70974 0.58123 0.65957
Zr3 Zr 0.45974 0.33123 0.90957
Zr4 Zr 0.20974 0.58123 0.65957
Zr5 Zr 0.45974 0.83123 0.40957
Zr6 Zr 0.20974 0.58123 0.15957
Zr7 Zr 0.45974 0.33123 0.40957
Zr8 Zr 0.70974 0.58123 0.15957
Zr9 Zr 0.95974 0.33123 0.40957
Zr10 Zr 0.95974 0.83123 0.40957
Zr11 Zr 0.70974 0.08123 0.65957
Zr12 Zr 0.20974 0.08123 0.65957
Zr13 Zr 0.20974 0.08123 0.15957
Zr14 Zr 0.70974 0.08123 0.15957
Zr15 Zr 0.95974 0.33123 0.90957
Zr16 Zr 0.95974 0.83123 0.90957
La1 La 0.58711 0.83123 0.65957
La2 La 0.70974 0.70860 0.40957
La3 La 0.33237 0.33123 0.65957
La4 La 0.20974 0.45386 0.40957
La5 La 0.83237 0.33123 0.65957
La6 La 0.70974 0.45386 0.90957
La7 La 0.08711 0.83123 0.65957
La8 La 0.20974 0.70860 0.90957
La9 La 0.33237 0.83123 0.15957
La10 La 0.70974 0.20860 0.40957
La11 La 0.58711 0.33123 0.15957
La12 La 0.20974 0.95386 0.40957
La13 La 0.08711 0.33123 0.15957
La14 La 0.20974 0.20860 0.90957
La15 La 0.83237 0.83123 0.15957
La16 La 0.70974 0.95386 0.90957
La17 La 0.45974 0.58123 0.03457
La18 La 0.95974 0.58123 0.78457
La19 La 0.45974 0.08123 0.28457
La20 La 0.95974 0.58123 0.28457
La21 La 0.45974 0.58123 0.53457
La22 La 0.45974 0.08123 0.78457
La23 La 0.95974 0.08123 0.53457
La24 La 0.95974 0.08123 0.03457
#End of li7la3zr2o12
