data_li7la3zr2o12
_cell_length_a                      13.23607
_cell_length_b                      13.23607
_cell_length_c                      12.701706
_cell_angle_alpha                   90.0
_cell_angle_beta                    90.0
_cell_angle_gamma                   90.0
_symmetry_space_group_name_H-M      P1
loop_
_space_group_symop_id
_space_group_symop_operation_xyz
1 x,y,z
loop_
_atom_site_label
_atom_site_type_symbol
_atom_site_fract_x
_atom_site_fract_y
_atom_site_fract_z
X1 X 0.69798 0.57873 0.58600
X2 X 0.69624 0.58212 0.58727
X3 X 0.69455 0.58558 0.58837
X4 X 0.69290 0.58912 0.58926
X5 X 0.69135 0.59278 0.58977
X6 X 0.68966 0.59762 0.58968
X7 X 0.69022 0.59579 0.58985
X8 X 0.69166 0.59207 0.58966
X9 X 0.69321 0.58842 0.58913
X10 X 0.69489 0.58491 0.58814
X11 X 0.69659 0.58146 0.58703
X12 X 0.69833 0.57808 0.58575
X13 X 0.70011 0.57476 0.58435
X14 X 0.70192 0.57149 0.58286
X15 X 0.70375 0.56826 0.58131
X16 X 0.70561 0.56507 0.57971
X17 X 0.70751 0.56194 0.57805
X18 X 0.70940 0.55880 0.57639
X19 X 0.71132 0.55568 0.57472
X20 X 0.71326 0.55258 0.57303
X21 X 0.71522 0.54950 0.57133
X22 X 0.71719 0.54643 0.56963
X23 X 0.71918 0.54336 0.56794
X24 X 0.72119 0.54030 0.56626
X25 X 0.72322 0.53724 0.56461
X26 X 0.72527 0.53418 0.56300
X27 X 0.72734 0.53110 0.56145
X28 X 0.72944 0.52800 0.56000
X29 X 0.73159 0.52487 0.55869
X30 X 0.73378 0.52170 0.55759
X31 X 0.73604 0.51849 0.55679
X32 X 0.73837 0.51526 0.55640
X33 X 0.74076 0.51206 0.55652
X34 X 0.74319 0.50894 0.55716
X35 X 0.74562 0.50596 0.55828
X36 X 0.74804 0.50313 0.55980
X37 X 0.75043 0.50045 0.56163
X38 X 0.75275 0.49797 0.56382
X39 X 0.75508 0.49549 0.56601
X40 X 0.75738 0.49309 0.56833
X41 X 0.75966 0.49075 0.57074
X42 X 0.76192 0.48845 0.57320
X43 X 0.76418 0.48617 0.57568
X44 X 0.76645 0.48386 0.57812
X45 X 0.76876 0.48137 0.58032
X46 X 0.77109 0.47873 0.58229
X47 X 0.77320 0.47553 0.58349
X48 X 0.77500 0.47203 0.58422
X49 X 0.77586 0.46813 0.58426
X50 X 0.77629 0.46416 0.58412
X51 X 0.77622 0.46017 0.58388
X52 X 0.77582 0.45619 0.58367
X53 X 0.77537 0.45222 0.58347
X54 X 0.77481 0.44827 0.58333
X55 X 0.77421 0.44432 0.58326
X56 X 0.77357 0.44037 0.58326
X57 X 0.77294 0.43642 0.58335
X58 X 0.77231 0.43248 0.58353
X59 X 0.77171 0.42853 0.58380
X60 X 0.77113 0.42460 0.58419
X61 X 0.77059 0.42066 0.58467
X62 X 0.77008 0.41674 0.58525
X63 X 0.76958 0.41282 0.58589
X64 X 0.76914 0.40892 0.58668
X65 X 0.76872 0.40503 0.58757
X66 X 0.76833 0.40118 0.58859
X67 X 0.76795 0.39734 0.58970
X68 X 0.76756 0.39355 0.59094
X69 X 0.76713 0.38979 0.59230
X70 X 0.76651 0.38607 0.59367
X71 X 0.76529 0.38235 0.59455
X72 X 0.76302 0.37930 0.59328
X73 X 0.76068 0.37673 0.59123
X74 X 0.75834 0.37437 0.58891
X75 X 0.75601 0.37208 0.58651
X76 X 0.75367 0.36987 0.58404
X77 X 0.75129 0.36788 0.58141
X78 X 0.74892 0.36588 0.57878
X79 X 0.74651 0.36410 0.57602
X80 X 0.74410 0.36239 0.57321
X81 X 0.74168 0.36082 0.57033
X82 X 0.73925 0.35939 0.56737
X83 X 0.73682 0.35810 0.56435
X84 X 0.73439 0.35694 0.56127
X85 X 0.73196 0.35588 0.55815
X86 X 0.72953 0.35490 0.55501
X87 X 0.72709 0.35394 0.55186
X88 X 0.72464 0.35290 0.54876
X89 X 0.72216 0.35167 0.54575
X90 X 0.71965 0.35017 0.54290
X91 X 0.71714 0.34840 0.54024
X92 X 0.71463 0.34643 0.53772
X93 X 0.71212 0.34442 0.53525
X94 X 0.70960 0.34238 0.53281
X95 X 0.70706 0.34045 0.53031
X96 X 0.70448 0.33866 0.52772
X97 X 0.70189 0.33703 0.52505
X98 X 0.69928 0.33549 0.52233
X99 X 0.69664 0.33415 0.51952
X100 X 0.69400 0.33297 0.51665
X101 X 0.69136 0.33187 0.51374
X102 X 0.68873 0.33097 0.51075
X103 X 0.68613 0.33020 0.50768
X104 X 0.68356 0.32952 0.50457
X105 X 0.68108 0.32900 0.50135
X106 X 0.67870 0.32860 0.49803
X107 X 0.67639 0.32828 0.49465
X108 X 0.67425 0.32809 0.49113
X109 X 0.67223 0.32798 0.48754
X110 X 0.67038 0.32800 0.48384
X111 X 0.66858 0.32812 0.48013
X112 X 0.66722 0.32839 0.47790
X113 X 0.66496 0.32940 0.47753
X114 X 0.66148 0.33123 0.47675
X115 X 0.65820 0.33333 0.47584
X116 X 0.65511 0.33569 0.47487
X117 X 0.65214 0.33819 0.47386
X118 X 0.64931 0.34084 0.47283
X119 X 0.64661 0.34362 0.47179
X120 X 0.64406 0.34652 0.47076
X121 X 0.64158 0.34950 0.46972
X122 X 0.63921 0.35257 0.46870
X123 X 0.63695 0.35573 0.46771
X124 X 0.63477 0.35895 0.46674
X125 X 0.63268 0.36223 0.46579
X126 X 0.63070 0.36559 0.46486
X127 X 0.62884 0.36898 0.46380
X128 X 0.62711 0.37233 0.46244
X129 X 0.62551 0.37556 0.46062
X130 X 0.62370 0.37805 0.45797
X131 X 0.62127 0.37961 0.45509
X132 X 0.61840 0.38043 0.45232
X133 X 0.61534 0.38084 0.44967
X134 X 0.61223 0.38107 0.44706
X135 X 0.60912 0.38111 0.44445
X136 X 0.60601 0.38116 0.44183
X137 X 0.60291 0.38111 0.43920
X138 X 0.59982 0.38097 0.43655
X139 X 0.59677 0.38074 0.43388
X140 X 0.59374 0.38040 0.43118
X141 X 0.59075 0.37994 0.42846
X142 X 0.58779 0.37934 0.42572
X143 X 0.58489 0.37859 0.42296
X144 X 0.58205 0.37767 0.42019
X145 X 0.57926 0.37663 0.41741
X146 X 0.57656 0.37541 0.41462
X147 X 0.57392 0.37404 0.41183
X148 X 0.57134 0.37257 0.40905
X149 X 0.56891 0.37084 0.40628
X150 X 0.56647 0.36910 0.40351
X151 X 0.56418 0.36714 0.40077
X152 X 0.56193 0.36512 0.39805
X153 X 0.55970 0.36305 0.39535
X154 X 0.55752 0.36089 0.39267
X155 X 0.55535 0.35874 0.38999
X156 X 0.55321 0.35650 0.38736
X157 X 0.55109 0.35423 0.38474
X158 X 0.54896 0.35193 0.38214
X159 X 0.54685 0.34960 0.37957
X160 X 0.54474 0.34726 0.37701
X161 X 0.54265 0.34488 0.37446
X162 X 0.54063 0.34245 0.37191
X163 X 0.53868 0.33998 0.36934
X164 X 0.53700 0.33735 0.36674
X165 X 0.53587 0.33447 0.36410
X166 X 0.53546 0.33135 0.36152
X167 X 0.53558 0.32806 0.35917
X168 X 0.53574 0.32473 0.35686
X169 X 0.53597 0.32125 0.35482
X170 X 0.53613 0.31772 0.35288
X171 X 0.53611 0.31410 0.35112
X172 X 0.53601 0.31044 0.34943
X173 X 0.53572 0.30674 0.34788
X174 X 0.53527 0.30302 0.34644
X175 X 0.53462 0.29928 0.34511
X176 X 0.53376 0.29554 0.34395
X177 X 0.53206 0.29021 0.34281
X178 X 0.53251 0.29276 0.33892
X179 X 0.53259 0.29461 0.33523
X180 X 0.53255 0.29651 0.33157
X181 X 0.53239 0.29852 0.32797
X182 X 0.53209 0.30070 0.32449
X183 X 0.53172 0.30294 0.32106
X184 X 0.53124 0.30528 0.31772
X185 X 0.53063 0.30770 0.31447
X186 X 0.52990 0.31018 0.31129
X187 X 0.52903 0.31270 0.30819
X188 X 0.52797 0.31525 0.30517
X189 X 0.52685 0.31781 0.30219
X190 X 0.52554 0.32036 0.29929
X191 X 0.52413 0.32291 0.29644
X192 X 0.52253 0.32545 0.29368
X193 X 0.52082 0.32797 0.29099
X194 X 0.51890 0.33047 0.28843
X195 X 0.51684 0.33295 0.28596
X196 X 0.51468 0.33541 0.28357
X197 X 0.51233 0.33783 0.28133
X198 X 0.50981 0.34020 0.27924
X199 X 0.50713 0.34251 0.27730
X200 X 0.50428 0.34474 0.27553
X201 X 0.50126 0.34688 0.27394
X202 X 0.49810 0.34891 0.27254
X203 X 0.49467 0.35071 0.27150
X204 X 0.49124 0.35252 0.27045
X205 X 0.48771 0.35419 0.26960
X206 X 0.48408 0.35574 0.26891
X207 X 0.48038 0.35716 0.26840
X208 X 0.47661 0.35846 0.26805
X209 X 0.47280 0.35965 0.26786
X210 X 0.46895 0.36072 0.26781
X211 X 0.46507 0.36169 0.26789
X212 X 0.46118 0.36257 0.26808
X213 X 0.45727 0.36338 0.26837
X214 X 0.45336 0.36402 0.26890
X215 X 0.44944 0.36465 0.26943
X216 X 0.44554 0.36512 0.27018
X217 X 0.44164 0.36555 0.27100
X218 X 0.43776 0.36591 0.27191
X219 X 0.43389 0.36622 0.27292
X220 X 0.43004 0.36647 0.27402
X221 X 0.42621 0.36668 0.27521
X222 X 0.42241 0.36684 0.27648
X223 X 0.41864 0.36696 0.27785
X224 X 0.41489 0.36707 0.27929
X225 X 0.41117 0.36717 0.28081
X226 X 0.40744 0.36726 0.28233
X227 X 0.40378 0.36738 0.28398
X228 X 0.40013 0.36754 0.28568
X229 X 0.39651 0.36779 0.28742
X230 X 0.39290 0.36817 0.28918
X231 X 0.38932 0.36872 0.29094
X232 X 0.38577 0.36950 0.29267
X233 X 0.38226 0.37054 0.29435
X234 X 0.37883 0.37186 0.29598
X235 X 0.37549 0.37343 0.29758
X236 X 0.37227 0.37520 0.29923
X237 X 0.36920 0.37712 0.30099
X238 X 0.36629 0.37912 0.30295
X239 X 0.36358 0.38115 0.30516
X240 X 0.36107 0.38318 0.30762
X241 X 0.35875 0.38518 0.31030
X242 X 0.35660 0.38715 0.31315
X243 X 0.35458 0.38908 0.31613
X244 X 0.35265 0.39099 0.31919
X245 X 0.35080 0.39288 0.32231
X246 X 0.34900 0.39475 0.32548
X247 X 0.34723 0.39661 0.32867
X248 X 0.34546 0.39847 0.33187
X249 X 0.34374 0.40030 0.33511
X250 X 0.34202 0.40211 0.33836
X251 X 0.34030 0.40391 0.34162
X252 X 0.33858 0.40569 0.34489
X253 X 0.33686 0.40745 0.34817
X254 X 0.33513 0.40919 0.35147
X255 X 0.33340 0.41090 0.35477
X256 X 0.33166 0.41258 0.35809
X257 X 0.32991 0.41422 0.36142
X258 X 0.32815 0.41583 0.36477
X259 X 0.32640 0.41744 0.36811
X260 X 0.32463 0.41898 0.37149
X261 X 0.32286 0.42046 0.37489
X262 X 0.32110 0.42189 0.37832
X263 X 0.31934 0.42325 0.38178
X264 X 0.31760 0.42455 0.38528
X265 X 0.31590 0.42577 0.38883
X266 X 0.31426 0.42691 0.39244
X267 X 0.31272 0.42794 0.39613
X268 X 0.31123 0.42893 0.39986
X269 X 0.31002 0.42972 0.40374
X270 X 0.30896 0.43045 0.40958
X271 X 0.30853 0.43010 0.41213
X272 X 0.30734 0.42874 0.41584
Li1 Li 0.69965 0.57816 0.59043
Li2 Li 0.28160 0.82114 0.34043
Li3 Li 0.53862 0.90309 0.59043
Li4 Li 0.95667 0.66011 0.34043
Li5 Li 0.69965 0.40309 0.47872
Li6 Li 0.78160 0.66011 0.22872
Li7 Li 0.53862 0.07816 0.47872
Li8 Li 0.45667 0.82114 0.22872
Li9 Li 0.03862 0.90309 0.47872
Li10 Li 0.45667 0.66011 0.72872
Li11 Li 0.19965 0.57816 0.47872
Li12 Li 0.78160 0.82114 0.72872
Li13 Li 0.53862 0.57816 0.09043
Li14 Li 0.45667 0.32114 0.34043
Li15 Li 0.69965 0.90309 0.09043
Li16 Li 0.78160 0.16011 0.34043
Li17 Li 0.19965 0.07816 0.09043
Li18 Li 0.78160 0.32114 0.84043
Li19 Li 0.03862 0.40309 0.09043
Li20 Li 0.45667 0.16011 0.84043
Li21 Li 0.19965 0.90309 0.97872
Li22 Li 0.28160 0.16011 0.72872
Li23 Li 0.03862 0.57816 0.97872
Li24 Li 0.95667 0.32114 0.72872
Li25 Li 0.53862 0.40309 0.97872
Li26 Li 0.95667 0.16011 0.22872
Li27 Li 0.69965 0.07816 0.97872
Li28 Li 0.28160 0.32114 0.22872
Li29 Li 0.03862 0.07816 0.59043
Li30 Li 0.95667 0.82114 0.84043
Li31 Li 0.19965 0.40309 0.59043
Li32 Li 0.28160 0.66011 0.84043
Li33 Li 0.80035 0.92184 0.90957
Li34 Li 0.93793 0.92184 0.65957
Li35 Li 0.43793 0.55942 0.90957
Li36 Li 0.30035 0.55942 0.65957
Li37 Li 0.80035 0.05942 0.15957
Li38 Li 0.43793 0.42184 0.15957
Li39 Li 0.93793 0.55942 0.15957
Li40 Li 0.80035 0.55942 0.40957
Li41 Li 0.30035 0.92184 0.15957
Li42 Li 0.43793 0.92184 0.40957
Li43 Li 0.80035 0.42184 0.65957
Li44 Li 0.43793 0.05942 0.65957
Li45 Li 0.30035 0.42184 0.40957
Li46 Li 0.93793 0.05942 0.40957
Li47 Li 0.30035 0.05942 0.90957
Li48 Li 0.93793 0.42184 0.90957
Li49 Li 0.61914 0.74063 0.65957
Li50 Li 0.11914 0.74063 0.40957
Li51 Li 0.61914 0.24063 0.40957
Li52 Li 0.61914 0.74063 0.15957
Li53 Li 0.11914 0.24063 0.15957
Li54 Li 0.61914 0.24063 0.90957
Li55 Li 0.11914 0.74063 0.90957
Li56 Li 0.11914 0.24063 0.65957
O1 O 0.65375 0.93514 0.93828
O2 O 0.92462 0.77524 0.68828
O3 O 0.58452 0.54611 0.93828
O4 O 0.31365 0.70601 0.68828
O5 O 0.65375 0.04611 0.13087
O6 O 0.42462 0.70601 0.88087
O7 O 0.58452 0.43514 0.13087
O8 O 0.81365 0.77524 0.88087
O9 O 0.08452 0.54611 0.13087
O10 O 0.81365 0.70601 0.38087
O11 O 0.15375 0.93514 0.13087
O12 O 0.42462 0.77524 0.38087
O13 O 0.58452 0.93514 0.43828
O14 O 0.81365 0.27524 0.68828
O15 O 0.65375 0.54611 0.43828
O16 O 0.42462 0.20601 0.68828
O17 O 0.15375 0.43514 0.43828
O18 O 0.42462 0.27524 0.18828
O19 O 0.08452 0.04611 0.43828
O20 O 0.81365 0.20601 0.18828
O21 O 0.15375 0.54611 0.63087
O22 O 0.92462 0.20601 0.38087
O23 O 0.08452 0.93514 0.63087
O24 O 0.31365 0.27524 0.38087
O25 O 0.58452 0.04611 0.63087
O26 O 0.31365 0.20601 0.88087
O27 O 0.65375 0.43514 0.63087
O28 O 0.92462 0.27524 0.88087
O29 O 0.08452 0.43514 0.93828
O30 O 0.31365 0.77524 0.18828
O31 O 0.15375 0.04611 0.93828
O32 O 0.92462 0.70601 0.18828
O33 O 0.67410 0.13818 0.81890
O34 O 0.72158 0.79559 0.56890
O35 O 0.56417 0.34307 0.81890
O36 O 0.51669 0.68566 0.56890
O37 O 0.67410 0.84307 0.25024
O38 O 0.22158 0.68566 0.00024
O39 O 0.56417 0.63818 0.25024
O40 O 0.01669 0.79559 0.00024
O41 O 0.06417 0.34307 0.25024
O42 O 0.01669 0.68566 0.50024
O43 O 0.17410 0.13818 0.25024
O44 O 0.22158 0.79559 0.50024
O45 O 0.56417 0.13818 0.31890
O46 O 0.01669 0.29559 0.56890
O47 O 0.67410 0.34307 0.31890
O48 O 0.22158 0.18566 0.56890
O49 O 0.17410 0.63818 0.31890
O50 O 0.22158 0.29559 0.06890
O51 O 0.06417 0.84307 0.31890
O52 O 0.01669 0.18566 0.06890
O53 O 0.17410 0.34307 0.75024
O54 O 0.72158 0.18566 0.50024
O55 O 0.06417 0.13818 0.75024
O56 O 0.51669 0.29559 0.50024
O57 O 0.56417 0.84307 0.75024
O58 O 0.51669 0.18566 0.00024
O59 O 0.67410 0.63818 0.75024
O60 O 0.72158 0.29559 0.00024
O61 O 0.06417 0.63818 0.81890
O62 O 0.51669 0.79559 0.06890
O63 O 0.17410 0.84307 0.81890
O64 O 0.72158 0.68566 0.06890
O65 O 0.76996 0.96385 0.73081
O66 O 0.89591 0.89145 0.48081
O67 O 0.46831 0.51740 0.73081
O68 O 0.34236 0.58980 0.48081
O69 O 0.76996 0.01740 0.33834
O70 O 0.39591 0.58980 0.08834
O71 O 0.46831 0.46385 0.33834
O72 O 0.84236 0.89145 0.08834
O73 O 0.96831 0.51740 0.33834
O74 O 0.84236 0.58980 0.58834
O75 O 0.26996 0.96385 0.33834
O76 O 0.39591 0.89145 0.58834
O77 O 0.46831 0.96385 0.23081
O78 O 0.84236 0.39145 0.48081
O79 O 0.76996 0.51740 0.23081
O80 O 0.39591 0.08980 0.48081
O81 O 0.26996 0.46385 0.23081
O82 O 0.39591 0.39145 0.98081
O83 O 0.96831 0.01740 0.23081
O84 O 0.84236 0.08980 0.98081
O85 O 0.26996 0.51740 0.83834
O86 O 0.89591 0.08980 0.58834
O87 O 0.96831 0.96385 0.83834
O88 O 0.34236 0.39145 0.58834
O89 O 0.46831 0.01740 0.83834
O90 O 0.34236 0.08980 0.08834
O91 O 0.76996 0.46385 0.83834
O92 O 0.89591 0.39145 0.08834
O93 O 0.96831 0.46385 0.73081
O94 O 0.34236 0.89145 0.98081
O95 O 0.26996 0.01740 0.73081
O96 O 0.89591 0.58980 0.98081
Zr1 Zr 0.61914 0.99063 0.78457
Zr2 Zr 0.86914 0.74063 0.53457
Zr3 Zr 0.61914 0.49063 0.78457
Zr4 Zr 0.36914 0.74063 0.53457
Zr5 Zr 0.61914 0.99063 0.28457
Zr6 Zr 0.36914 0.74063 0.03457
Zr7 Zr 0.61914 0.49063 0.28457
Zr8 Zr 0.86914 0.74063 0.03457
Zr9 Zr 0.11914 0.49063 0.28457
Zr10 Zr 0.11914 0.99063 0.28457
Zr11 Zr 0.86914 0.24063 0.53457
Zr12 Zr 0.36914 0.24063 0.53457
Zr13 Zr 0.36914 0.24063 0.03457
Zr14 Zr 0.86914 0.24063 0.03457
Zr15 Zr 0.11914 0.49063 0.78457
Zr16 Zr 0.11914 0.99063 0.78457
La1 La 0.74651 0.99063 0.53457
La2 La 0.86914 0.86800 0.28457
La3 La 0.49177 0.49063 0.53457
La4 La 0.36914 0.61326 0.28457
La5 La 0.99177 0.49063 0.53457
La6 La 0.86914 0.61326 0.78457
La7 La 0.24651 0.99063 0.53457
La8 La 0.36914 0.86800 0.78457
La9 La 0.49177 0.99063 0.03457
La10 La 0.86914 0.36800 0.28457
La11 La 0.74651 0.49063 0.03457
La12 La 0.36914 0.11326 0.28457
La13 La 0.24651 0.49063 0.03457
La14 La 0.36914 0.36800 0.78457
La15 La 0.99177 0.99063 0.03457
La16 La 0.86914 0.11326 0.78457
La17 La 0.61914 0.74063 0.90957
La18 La 0.11914 0.74063 0.65957
La19 La 0.61914 0.24063 0.15957
La20 La 0.11914 0.74063 0.15957
La21 La 0.61914 0.74063 0.40957
La22 La 0.61914 0.24063 0.65957
La23 La 0.11914 0.24063 0.40957
La24 La 0.11914 0.24063 0.90957
#End of li7la3zr2o12
