data_li7la3zr2o12
_cell_length_a                      13.23607
_cell_length_b                      13.23607
_cell_length_c                      12.701706
_cell_angle_alpha                   90.0
_cell_angle_beta                    90.0
_cell_angle_gamma                   90.0
_symmetry_space_group_name_H-M      P1
loop_
_space_group_symop_id
_space_group_symop_operation_xyz
1 x,y,z
loop_
_atom_site_label
_atom_site_type_symbol
_atom_site_fract_x
_atom_site_fract_y
_atom_site_fract_z
X1 X 0.53868 0.66918 0.33595
X2 X 0.53694 0.67256 0.33723
X3 X 0.53524 0.67603 0.33833
X4 X 0.53359 0.67956 0.33923
X5 X 0.53204 0.68321 0.33976
X6 X 0.53028 0.68822 0.33970
X7 X 0.53110 0.68566 0.34033
X8 X 0.53255 0.68214 0.34158
X9 X 0.53420 0.67885 0.34320
X10 X 0.53600 0.67582 0.34517
X11 X 0.53790 0.67300 0.34737
X12 X 0.53985 0.67028 0.34965
X13 X 0.54184 0.66768 0.35203
X14 X 0.54388 0.66515 0.35446
X15 X 0.54595 0.66268 0.35692
X16 X 0.54806 0.66024 0.35939
X17 X 0.55022 0.65782 0.36182
X18 X 0.55239 0.65540 0.36425
X19 X 0.55458 0.65297 0.36665
X20 X 0.55680 0.65053 0.36900
X21 X 0.55905 0.64808 0.37130
X22 X 0.56133 0.64559 0.37354
X23 X 0.56364 0.64308 0.37571
X24 X 0.56598 0.64053 0.37780
X25 X 0.56834 0.63794 0.37980
X26 X 0.57073 0.63531 0.38172
X27 X 0.57314 0.63264 0.38354
X28 X 0.57559 0.62991 0.38519
X29 X 0.57804 0.62717 0.38683
X30 X 0.58050 0.62439 0.38839
X31 X 0.58298 0.62159 0.38985
X32 X 0.58547 0.61876 0.39124
X33 X 0.58797 0.61591 0.39256
X34 X 0.59047 0.61305 0.39384
X35 X 0.59299 0.61019 0.39511
X36 X 0.59550 0.60734 0.39642
X37 X 0.59802 0.60453 0.39779
X38 X 0.60054 0.60184 0.39941
X39 X 0.60304 0.59936 0.40138
X40 X 0.60547 0.59722 0.40382
X41 X 0.60781 0.59550 0.40669
X42 X 0.61012 0.59415 0.40978
X43 X 0.61253 0.59306 0.41291
X44 X 0.61511 0.59215 0.41594
X45 X 0.61799 0.59140 0.41872
X46 X 0.62109 0.59073 0.42126
X47 X 0.62437 0.59008 0.42355
X48 X 0.62776 0.58943 0.42564
X49 X 0.63125 0.58875 0.42755
X50 X 0.63480 0.58802 0.42932
X51 X 0.63838 0.58724 0.43099
X52 X 0.64197 0.58632 0.43253
X53 X 0.64555 0.58526 0.43403
X54 X 0.64909 0.58409 0.43554
X55 X 0.65254 0.58276 0.43712
X56 X 0.65585 0.58122 0.43883
X57 X 0.65886 0.57940 0.44080
X58 X 0.66171 0.57745 0.44290
X59 X 0.66424 0.57528 0.44520
X60 X 0.66646 0.57292 0.44764
X61 X 0.66839 0.57038 0.45016
X62 X 0.67005 0.56767 0.45268
X63 X 0.67154 0.56483 0.45516
X64 X 0.67288 0.56185 0.45757
X65 X 0.67408 0.55874 0.45988
X66 X 0.67517 0.55552 0.46206
X67 X 0.67617 0.55219 0.46412
X68 X 0.67712 0.54881 0.46610
X69 X 0.67791 0.54524 0.46781
X70 X 0.67870 0.54168 0.46951
X71 X 0.67935 0.53798 0.47094
X72 X 0.67997 0.53425 0.47230
X73 X 0.68053 0.53048 0.47355
X74 X 0.68102 0.52666 0.47466
X75 X 0.68145 0.52280 0.47565
X76 X 0.68183 0.51892 0.47657
X77 X 0.68215 0.51501 0.47736
X78 X 0.68244 0.51108 0.47810
X79 X 0.68266 0.50714 0.47875
X80 X 0.68288 0.50320 0.47941
X81 X 0.68309 0.49927 0.48014
X82 X 0.68324 0.49702 0.48079
X83 X 0.67869 0.49501 0.48300
X84 X 0.67499 0.49372 0.48384
X85 X 0.67124 0.49248 0.48447
X86 X 0.66743 0.49134 0.48482
X87 X 0.66360 0.49022 0.48513
X88 X 0.65975 0.48916 0.48531
X89 X 0.65588 0.48816 0.48537
X90 X 0.65199 0.48721 0.48534
X91 X 0.64809 0.48636 0.48514
X92 X 0.64418 0.48555 0.48487
X93 X 0.64027 0.48483 0.48445
X94 X 0.63636 0.48415 0.48395
X95 X 0.63245 0.48351 0.48339
X96 X 0.62856 0.48298 0.48260
X97 X 0.62467 0.48245 0.48181
X98 X 0.62082 0.48202 0.48080
X99 X 0.61698 0.48159 0.47972
X100 X 0.61318 0.48119 0.47851
X101 X 0.60940 0.48078 0.47720
X102 X 0.60567 0.48034 0.47578
X103 X 0.60201 0.47978 0.47420
X104 X 0.59777 0.47881 0.47228
X105 X 0.59412 0.47584 0.47349
X106 X 0.59164 0.47340 0.47553
X107 X 0.58930 0.47101 0.47781
X108 X 0.58701 0.46864 0.48017
X109 X 0.58487 0.46626 0.48267
X110 X 0.58274 0.46389 0.48518
X111 X 0.58077 0.46149 0.48781
X112 X 0.57886 0.45909 0.49048
X113 X 0.57706 0.45668 0.49322
X114 X 0.57537 0.45426 0.49603
X115 X 0.57380 0.45184 0.49891
X116 X 0.57237 0.44942 0.50187
X117 X 0.57107 0.44700 0.50490
X118 X 0.56989 0.44459 0.50799
X119 X 0.56882 0.44219 0.51113
X120 X 0.56785 0.43980 0.51431
X121 X 0.56692 0.43741 0.51751
X122 X 0.56600 0.43503 0.52072
X123 X 0.56508 0.43264 0.52392
X124 X 0.56405 0.43025 0.52708
X125 X 0.56286 0.42784 0.53016
X126 X 0.56147 0.42542 0.53315
X127 X 0.55990 0.42301 0.53604
X128 X 0.55823 0.42060 0.53887
X129 X 0.55653 0.41819 0.54169
X130 X 0.55485 0.41579 0.54453
X131 X 0.55324 0.41340 0.54741
X132 X 0.55173 0.41101 0.55035
X133 X 0.55031 0.40862 0.55335
X134 X 0.54889 0.40624 0.55636
X135 X 0.54768 0.40389 0.55948
X136 X 0.54657 0.40156 0.56266
X137 X 0.54556 0.39926 0.56590
X138 X 0.54463 0.39699 0.56919
X139 X 0.54378 0.39476 0.57254
X140 X 0.54299 0.39258 0.57593
X141 X 0.54225 0.39043 0.57936
X142 X 0.54152 0.38833 0.58282
X143 X 0.54079 0.38626 0.58630
X144 X 0.54000 0.38420 0.58978
X145 X 0.53921 0.38214 0.59325
X146 X 0.53821 0.38008 0.59666
X147 X 0.53689 0.37795 0.59991
X148 X 0.53532 0.37578 0.60300
X149 X 0.53321 0.37357 0.60569
X150 X 0.53086 0.37139 0.60817
X151 X 0.52825 0.36928 0.61044
X152 X 0.52538 0.36731 0.61250
X153 X 0.52246 0.36541 0.61454
X154 X 0.51948 0.36361 0.61658
X155 X 0.51647 0.36187 0.61866
X156 X 0.51347 0.36018 0.62076
X157 X 0.51047 0.35852 0.62290
X158 X 0.50747 0.35688 0.62506
X159 X 0.50448 0.35525 0.62725
X160 X 0.50150 0.35363 0.62945
X161 X 0.49852 0.35203 0.63166
X162 X 0.49554 0.35042 0.63389
X163 X 0.49257 0.34883 0.63612
X164 X 0.48959 0.34723 0.63836
X165 X 0.48662 0.34563 0.64060
X166 X 0.48365 0.34404 0.64284
X167 X 0.48068 0.34244 0.64507
X168 X 0.47771 0.34085 0.64730
X169 X 0.47472 0.33925 0.64952
X170 X 0.47173 0.33765 0.65172
X171 X 0.46872 0.33604 0.65388
X172 X 0.46569 0.33442 0.65603
X173 X 0.46260 0.33277 0.65803
Li1 Li 0.54026 0.66877 0.34043
Li2 Li 0.12221 0.91175 0.09043
Li3 Li 0.37923 0.99370 0.34043
Li4 Li 0.79728 0.75072 0.09043
Li5 Li 0.54026 0.49370 0.22872
Li6 Li 0.62221 0.75072 0.97872
Li7 Li 0.37923 0.16877 0.22872
Li8 Li 0.29728 0.91175 0.97872
Li9 Li 0.87923 0.99370 0.22872
Li10 Li 0.29728 0.75072 0.47872
Li11 Li 0.04026 0.66877 0.22872
Li12 Li 0.62221 0.91175 0.47872
Li13 Li 0.37923 0.66877 0.84043
Li14 Li 0.29728 0.41175 0.09043
Li15 Li 0.54026 0.99370 0.84043
Li16 Li 0.62221 0.25072 0.09043
Li17 Li 0.04026 0.16877 0.84043
Li18 Li 0.62221 0.41175 0.59043
Li19 Li 0.87923 0.49370 0.84043
Li20 Li 0.29728 0.25072 0.59043
Li21 Li 0.04026 0.99370 0.72872
Li22 Li 0.12221 0.25072 0.47872
Li23 Li 0.87923 0.66877 0.72872
Li24 Li 0.79728 0.41175 0.47872
Li25 Li 0.37923 0.49370 0.72872
Li26 Li 0.79728 0.25072 0.97872
Li27 Li 0.54026 0.16877 0.72872
Li28 Li 0.12221 0.41175 0.97872
Li29 Li 0.87923 0.16877 0.34043
Li30 Li 0.79728 0.91175 0.59043
Li31 Li 0.04026 0.49370 0.34043
Li32 Li 0.12221 0.75072 0.59043
Li33 Li 0.64095 0.01244 0.65957
Li34 Li 0.77853 0.01244 0.40957
Li35 Li 0.27853 0.65002 0.65957
Li36 Li 0.14095 0.65002 0.40957
Li37 Li 0.64095 0.15002 0.90957
Li38 Li 0.27853 0.51244 0.90957
Li39 Li 0.77853 0.65002 0.90957
Li40 Li 0.64095 0.65002 0.15957
Li41 Li 0.14095 0.01244 0.90957
Li42 Li 0.27853 0.01244 0.15957
Li43 Li 0.64095 0.51244 0.40957
Li44 Li 0.27853 0.15002 0.40957
Li45 Li 0.14095 0.51244 0.15957
Li46 Li 0.77853 0.15002 0.15957
Li47 Li 0.14095 0.15002 0.65957
Li48 Li 0.77853 0.51244 0.65957
Li49 Li 0.45974 0.83123 0.40957
Li50 Li 0.95974 0.83123 0.15957
Li51 Li 0.45974 0.33123 0.15957
Li52 Li 0.45974 0.83123 0.90957
Li53 Li 0.95974 0.33123 0.90957
Li54 Li 0.45974 0.33123 0.65957
Li55 Li 0.95974 0.83123 0.65957
Li56 Li 0.95974 0.33123 0.40957
O1 O 0.49436 0.02575 0.68828
O2 O 0.76523 0.86585 0.43828
O3 O 0.42513 0.63672 0.68828
O4 O 0.15426 0.79662 0.43828
O5 O 0.49436 0.13672 0.88087
O6 O 0.26523 0.79662 0.63087
O7 O 0.42513 0.52575 0.88087
O8 O 0.65426 0.86585 0.63087
O9 O 0.92513 0.63672 0.88087
O10 O 0.65426 0.79662 0.13087
O11 O 0.99436 0.02575 0.88087
O12 O 0.26523 0.86585 0.13087
O13 O 0.42513 0.02575 0.18828
O14 O 0.65426 0.36585 0.43828
O15 O 0.49436 0.63672 0.18828
O16 O 0.26523 0.29662 0.43828
O17 O 0.99436 0.52575 0.18828
O18 O 0.26523 0.36585 0.93828
O19 O 0.92513 0.13672 0.18828
O20 O 0.65426 0.29662 0.93828
O21 O 0.99436 0.63672 0.38087
O22 O 0.76523 0.29662 0.13087
O23 O 0.92513 0.02575 0.38087
O24 O 0.15426 0.36585 0.13087
O25 O 0.42513 0.13672 0.38087
O26 O 0.15426 0.29662 0.63087
O27 O 0.49436 0.52575 0.38087
O28 O 0.76523 0.36585 0.63087
O29 O 0.92513 0.52575 0.68828
O30 O 0.15426 0.86585 0.93828
O31 O 0.99436 0.13672 0.68828
O32 O 0.76523 0.79662 0.93828
O33 O 0.51471 0.22879 0.56890
O34 O 0.56219 0.88620 0.31890
O35 O 0.40478 0.43368 0.56890
O36 O 0.35730 0.77627 0.31890
O37 O 0.51471 0.93368 0.00024
O38 O 0.06219 0.77627 0.75024
O39 O 0.40478 0.72879 0.00024
O40 O 0.85730 0.88620 0.75024
O41 O 0.90478 0.43368 0.00024
O42 O 0.85730 0.77627 0.25024
O43 O 0.01471 0.22879 0.00024
O44 O 0.06219 0.88620 0.25024
O45 O 0.40478 0.22879 0.06890
O46 O 0.85730 0.38620 0.31890
O47 O 0.51471 0.43368 0.06890
O48 O 0.06219 0.27627 0.31890
O49 O 0.01471 0.72879 0.06890
O50 O 0.06219 0.38620 0.81890
O51 O 0.90478 0.93368 0.06890
O52 O 0.85730 0.27627 0.81890
O53 O 0.01471 0.43368 0.50024
O54 O 0.56219 0.27627 0.25024
O55 O 0.90478 0.22879 0.50024
O56 O 0.35730 0.38620 0.25024
O57 O 0.40478 0.93368 0.50024
O58 O 0.35730 0.27627 0.75024
O59 O 0.51471 0.72879 0.50024
O60 O 0.56219 0.38620 0.75024
O61 O 0.90478 0.72879 0.56890
O62 O 0.35730 0.88620 0.81890
O63 O 0.01471 0.93368 0.56890
O64 O 0.56219 0.77627 0.81890
O65 O 0.61057 0.05446 0.48081
O66 O 0.73652 0.98206 0.23081
O67 O 0.30892 0.60801 0.48081
O68 O 0.18297 0.68041 0.23081
O69 O 0.61057 0.10801 0.08834
O70 O 0.23652 0.68041 0.83834
O71 O 0.30892 0.55446 0.08834
O72 O 0.68297 0.98206 0.83834
O73 O 0.80892 0.60801 0.08834
O74 O 0.68297 0.68041 0.33834
O75 O 0.11057 0.05446 0.08834
O76 O 0.23652 0.98206 0.33834
O77 O 0.30892 0.05446 0.98081
O78 O 0.68297 0.48206 0.23081
O79 O 0.61057 0.60801 0.98081
O80 O 0.23652 0.18041 0.23081
O81 O 0.11057 0.55446 0.98081
O82 O 0.23652 0.48206 0.73081
O83 O 0.80892 0.10801 0.98081
O84 O 0.68297 0.18041 0.73081
O85 O 0.11057 0.60801 0.58834
O86 O 0.73652 0.18041 0.33834
O87 O 0.80892 0.05446 0.58834
O88 O 0.18297 0.48206 0.33834
O89 O 0.30892 0.10801 0.58834
O90 O 0.18297 0.18041 0.83834
O91 O 0.61057 0.55446 0.58834
O92 O 0.73652 0.48206 0.83834
O93 O 0.80892 0.55446 0.48081
O94 O 0.18297 0.98206 0.73081
O95 O 0.11057 0.10801 0.48081
O96 O 0.73652 0.68041 0.73081
Zr1 Zr 0.45974 0.08123 0.53457
Zr2 Zr 0.70974 0.83123 0.28457
Zr3 Zr 0.45974 0.58123 0.53457
Zr4 Zr 0.20974 0.83123 0.28457
Zr5 Zr 0.45974 0.08123 0.03457
Zr6 Zr 0.20974 0.83123 0.78457
Zr7 Zr 0.45974 0.58123 0.03457
Zr8 Zr 0.70974 0.83123 0.78457
Zr9 Zr 0.95974 0.58123 0.03457
Zr10 Zr 0.95974 0.08123 0.03457
Zr11 Zr 0.70974 0.33123 0.28457
Zr12 Zr 0.20974 0.33123 0.28457
Zr13 Zr 0.20974 0.33123 0.78457
Zr14 Zr 0.70974 0.33123 0.78457
Zr15 Zr 0.95974 0.58123 0.53457
Zr16 Zr 0.95974 0.08123 0.53457
La1 La 0.58711 0.08123 0.28457
La2 La 0.70974 0.95860 0.03457
La3 La 0.33237 0.58123 0.28457
La4 La 0.20974 0.70386 0.03457
La5 La 0.83237 0.58123 0.28457
La6 La 0.70974 0.70386 0.53457
La7 La 0.08711 0.08123 0.28457
La8 La 0.20974 0.95860 0.53457
La9 La 0.33237 0.08123 0.78457
La10 La 0.70974 0.45860 0.03457
La11 La 0.58711 0.58123 0.78457
La12 La 0.20974 0.20386 0.03457
La13 La 0.08711 0.58123 0.78457
La14 La 0.20974 0.45860 0.53457
La15 La 0.83237 0.08123 0.78457
La16 La 0.70974 0.20386 0.53457
La17 La 0.45974 0.83123 0.65957
La18 La 0.95974 0.83123 0.40957
La19 La 0.45974 0.33123 0.90957
La20 La 0.95974 0.83123 0.90957
La21 La 0.45974 0.83123 0.15957
La22 La 0.45974 0.33123 0.40957
La23 La 0.95974 0.33123 0.15957
La24 La 0.95974 0.33123 0.65957
#End of li7la3zr2o12
