data_li7la3zr2o12
_cell_length_a                      13.23607
_cell_length_b                      13.23607
_cell_length_c                      12.701706
_cell_angle_alpha                   90.0
_cell_angle_beta                    90.0
_cell_angle_gamma                   90.0
_symmetry_space_group_name_H-M      P1
loop_
_space_group_symop_id
_space_group_symop_operation_xyz
1 x,y,z
loop_
_atom_site_label
_atom_site_type_symbol
_atom_site_fract_x
_atom_site_fract_y
_atom_site_fract_z
X1 X 0.50466 0.50249 0.25270
X2 X 0.50772 0.50413 0.25477
X3 X 0.51074 0.50574 0.25693
X4 X 0.51373 0.50734 0.25912
X5 X 0.51672 0.50894 0.26133
X6 X 0.51969 0.51054 0.26356
X7 X 0.52267 0.51213 0.26580
X8 X 0.52564 0.51372 0.26804
X9 X 0.52861 0.51532 0.27028
X10 X 0.53158 0.51691 0.27251
X11 X 0.53456 0.51851 0.27475
X12 X 0.53753 0.52011 0.27698
X13 X 0.54051 0.52171 0.27920
X14 X 0.54349 0.52332 0.28141
X15 X 0.54648 0.52494 0.28360
X16 X 0.54948 0.52657 0.28578
X17 X 0.55248 0.52825 0.28790
X18 X 0.55548 0.52993 0.29002
X19 X 0.55848 0.53165 0.29211
X20 X 0.56148 0.53341 0.29417
X21 X 0.56446 0.53522 0.29621
X22 X 0.56734 0.53716 0.29827
X23 X 0.57009 0.53921 0.30041
X24 X 0.57260 0.54135 0.30276
X25 X 0.57478 0.54354 0.30540
X26 X 0.57660 0.54573 0.30833
X27 X 0.57794 0.54786 0.31157
X28 X 0.57910 0.54994 0.31491
X29 X 0.58000 0.55198 0.31837
X30 X 0.58075 0.55404 0.32186
X31 X 0.58151 0.55610 0.32534
X32 X 0.58223 0.55818 0.32881
X33 X 0.58297 0.56031 0.33226
X34 X 0.58374 0.56247 0.33567
X35 X 0.58456 0.56468 0.33903
X36 X 0.58545 0.56693 0.34235
X37 X 0.58643 0.56922 0.34561
X38 X 0.58750 0.57154 0.34882
X39 X 0.58867 0.57388 0.35196
X40 X 0.58995 0.57625 0.35505
X41 X 0.59143 0.57864 0.35801
X42 X 0.59291 0.58103 0.36097
X43 X 0.59449 0.58342 0.36387
X44 X 0.59615 0.58582 0.36672
X45 X 0.59787 0.58823 0.36952
X46 X 0.59958 0.59064 0.37233
X47 X 0.60123 0.59305 0.37517
X48 X 0.60275 0.59547 0.37808
X49 X 0.60408 0.59789 0.38110
X50 X 0.60523 0.60030 0.38420
X51 X 0.60624 0.60269 0.38736
X52 X 0.60721 0.60508 0.39055
X53 X 0.60818 0.60748 0.39373
X54 X 0.60918 0.60987 0.39690
X55 X 0.61026 0.61227 0.40004
X56 X 0.61143 0.61468 0.40313
X57 X 0.61272 0.61710 0.40616
X58 X 0.61414 0.61952 0.40913
X59 X 0.61569 0.62194 0.41202
X60 X 0.61737 0.62436 0.41484
X61 X 0.61916 0.62677 0.41759
X62 X 0.62106 0.62916 0.42028
X63 X 0.62307 0.63155 0.42289
X64 X 0.62512 0.63393 0.42546
X65 X 0.62734 0.63629 0.42790
X66 X 0.62956 0.63864 0.43035
X67 X 0.63196 0.64100 0.43259
X68 X 0.63447 0.64338 0.43469
X69 X 0.63843 0.64645 0.43617
X70 X 0.63458 0.64498 0.43803
X71 X 0.63208 0.64388 0.44107
X72 X 0.63034 0.64267 0.44461
X73 X 0.62893 0.64142 0.44828
X74 X 0.62792 0.64011 0.45207
X75 X 0.62713 0.63880 0.45592
X76 X 0.62654 0.63751 0.45982
X77 X 0.62612 0.63625 0.46375
X78 X 0.62584 0.63503 0.46771
X79 X 0.62570 0.63387 0.47169
X80 X 0.62576 0.63283 0.47571
X81 X 0.62583 0.63178 0.47973
X82 X 0.62600 0.63080 0.48377
X83 X 0.62625 0.62988 0.48781
X84 X 0.62664 0.62907 0.49187
X85 X 0.62706 0.62828 0.49593
X86 X 0.62767 0.62767 0.50000
X87 X 0.62828 0.62706 0.50407
X88 X 0.62907 0.62664 0.50813
X89 X 0.62988 0.62625 0.51219
X90 X 0.63080 0.62600 0.51623
X91 X 0.63178 0.62583 0.52027
X92 X 0.63283 0.62576 0.52429
X93 X 0.63387 0.62570 0.52831
X94 X 0.63503 0.62584 0.53229
X95 X 0.63625 0.62612 0.53625
X96 X 0.63751 0.62654 0.54018
X97 X 0.63880 0.62713 0.54408
X98 X 0.64011 0.62792 0.54793
X99 X 0.64142 0.62893 0.55172
X100 X 0.64267 0.63034 0.55539
X101 X 0.64388 0.63208 0.55893
X102 X 0.64498 0.63458 0.56197
X103 X 0.64645 0.63843 0.56383
X104 X 0.64338 0.63447 0.56531
X105 X 0.64100 0.63196 0.56741
X106 X 0.63864 0.62956 0.56965
X107 X 0.63629 0.62734 0.57210
X108 X 0.63393 0.62512 0.57454
X109 X 0.63155 0.62307 0.57711
X110 X 0.62916 0.62106 0.57972
X111 X 0.62677 0.61916 0.58241
X112 X 0.62436 0.61737 0.58516
X113 X 0.62194 0.61569 0.58798
X114 X 0.61952 0.61414 0.59087
X115 X 0.61710 0.61272 0.59384
X116 X 0.61468 0.61143 0.59687
X117 X 0.61227 0.61026 0.59996
X118 X 0.60987 0.60918 0.60310
X119 X 0.60748 0.60818 0.60627
X120 X 0.60508 0.60721 0.60945
X121 X 0.60269 0.60624 0.61264
X122 X 0.60030 0.60523 0.61580
X123 X 0.59789 0.60408 0.61890
X124 X 0.59547 0.60275 0.62192
X125 X 0.59305 0.60123 0.62483
X126 X 0.59064 0.59958 0.62767
X127 X 0.58823 0.59787 0.63048
X128 X 0.58582 0.59615 0.63328
X129 X 0.58342 0.59449 0.63613
X130 X 0.58103 0.59291 0.63903
X131 X 0.57864 0.59143 0.64199
X132 X 0.57625 0.58995 0.64495
X133 X 0.57388 0.58867 0.64804
X134 X 0.57154 0.58750 0.65118
X135 X 0.56922 0.58643 0.65439
X136 X 0.56693 0.58545 0.65765
X137 X 0.56468 0.58456 0.66097
X138 X 0.56247 0.58374 0.66433
X139 X 0.56031 0.58297 0.66774
X140 X 0.55818 0.58223 0.67119
X141 X 0.55610 0.58151 0.67466
X142 X 0.55404 0.58075 0.67814
X143 X 0.55198 0.58000 0.68163
X144 X 0.54994 0.57910 0.68509
X145 X 0.54786 0.57794 0.68843
X146 X 0.54573 0.57660 0.69167
X147 X 0.54354 0.57478 0.69460
X148 X 0.54135 0.57260 0.69724
X149 X 0.53921 0.57009 0.69959
X150 X 0.53716 0.56734 0.70173
X151 X 0.53522 0.56446 0.70379
X152 X 0.53341 0.56148 0.70583
X153 X 0.53165 0.55848 0.70789
X154 X 0.52993 0.55548 0.70998
X155 X 0.52825 0.55248 0.71210
X156 X 0.52657 0.54948 0.71422
X157 X 0.52494 0.54648 0.71640
X158 X 0.52332 0.54349 0.71859
X159 X 0.52171 0.54051 0.72080
X160 X 0.52011 0.53753 0.72302
X161 X 0.51851 0.53456 0.72525
X162 X 0.51691 0.53158 0.72749
X163 X 0.51532 0.52861 0.72972
X164 X 0.51372 0.52564 0.73196
X165 X 0.51213 0.52267 0.73420
X166 X 0.51054 0.51969 0.73644
X167 X 0.50894 0.51672 0.73867
X168 X 0.50734 0.51373 0.74088
X169 X 0.50574 0.51074 0.74307
X170 X 0.50413 0.50772 0.74523
X171 X 0.50249 0.50466 0.74730
Li1 Li 0.58052 0.33753 0.18086
Li2 Li 0.16247 0.58052 0.93086
Li3 Li 0.41948 0.66247 0.18086
Li4 Li 0.83753 0.41948 0.93086
Li5 Li 0.58052 0.16247 0.06914
Li6 Li 0.66247 0.41948 0.81914
Li7 Li 0.41948 0.83753 0.06914
Li8 Li 0.33753 0.58052 0.81914
Li9 Li 0.91948 0.66247 0.06914
Li10 Li 0.33753 0.41948 0.31914
Li11 Li 0.08052 0.33753 0.06914
Li12 Li 0.66247 0.58052 0.31914
Li13 Li 0.41948 0.33753 0.68086
Li14 Li 0.33753 0.08052 0.93086
Li15 Li 0.58052 0.66247 0.68086
Li16 Li 0.66247 0.91948 0.93086
Li17 Li 0.08052 0.83753 0.68086
Li18 Li 0.66247 0.08052 0.43086
Li19 Li 0.91948 0.16247 0.68086
Li20 Li 0.33753 0.91948 0.43086
Li21 Li 0.08052 0.66247 0.56914
Li22 Li 0.16247 0.91948 0.31914
Li23 Li 0.91948 0.33753 0.56914
Li24 Li 0.83753 0.08052 0.31914
Li25 Li 0.41948 0.16247 0.56914
Li26 Li 0.83753 0.91948 0.81914
Li27 Li 0.58052 0.83753 0.56914
Li28 Li 0.16247 0.08052 0.81914
Li29 Li 0.91948 0.83753 0.18086
Li30 Li 0.83753 0.58052 0.43086
Li31 Li 0.08052 0.16247 0.18086
Li32 Li 0.16247 0.41948 0.43086
Li33 Li 0.68121 0.68121 0.50000
Li34 Li 0.81879 0.68121 0.25000
Li35 Li 0.31879 0.31879 0.50000
Li36 Li 0.18121 0.31879 0.25000
Li37 Li 0.68121 0.81879 0.75000
Li38 Li 0.31879 0.18121 0.75000
Li39 Li 0.81879 0.31879 0.75000
Li40 Li 0.68121 0.31879 0.00000
Li41 Li 0.18121 0.68121 0.75000
Li42 Li 0.31879 0.68121 0.00000
Li43 Li 0.68121 0.18121 0.25000
Li44 Li 0.31879 0.81879 0.25000
Li45 Li 0.18121 0.18121 0.00000
Li46 Li 0.81879 0.81879 0.00000
Li47 Li 0.18121 0.81879 0.50000
Li48 Li 0.81879 0.18121 0.50000
Li49 Li 0.50000 0.50000 0.25000
Li50 Li 0.00000 0.50000 0.00000
Li51 Li 0.50000 0.00000 0.00000
Li52 Li 0.50000 0.50000 0.75000
Li53 Li 0.00000 0.00000 0.75000
Li54 Li 0.50000 0.00000 0.50000
Li55 Li 0.00000 0.50000 0.50000
Li56 Li 0.00000 0.00000 0.25000
O1 O 0.53462 0.69452 0.52870
O2 O 0.80548 0.53462 0.27870
O3 O 0.46538 0.30548 0.52870
O4 O 0.19452 0.46538 0.27870
O5 O 0.53462 0.80548 0.72130
O6 O 0.30548 0.46538 0.47130
O7 O 0.46538 0.19452 0.72130
O8 O 0.69452 0.53462 0.47130
O9 O 0.96538 0.30548 0.72130
O10 O 0.69452 0.46538 0.97130
O11 O 0.03462 0.69452 0.72130
O12 O 0.30548 0.53462 0.97130
O13 O 0.46538 0.69452 0.02870
O14 O 0.69452 0.03462 0.27870
O15 O 0.53462 0.30548 0.02870
O16 O 0.30548 0.96538 0.27870
O17 O 0.03462 0.19452 0.02870
O18 O 0.30548 0.03462 0.77870
O19 O 0.96538 0.80548 0.02870
O20 O 0.69452 0.96538 0.77870
O21 O 0.03462 0.30548 0.22130
O22 O 0.80548 0.96538 0.97130
O23 O 0.96538 0.69452 0.22130
O24 O 0.19452 0.03462 0.97130
O25 O 0.46538 0.80548 0.22130
O26 O 0.19452 0.96538 0.47130
O27 O 0.53462 0.19452 0.22130
O28 O 0.80548 0.03462 0.47130
O29 O 0.96538 0.19452 0.52870
O30 O 0.19452 0.53462 0.77870
O31 O 0.03462 0.80548 0.52870
O32 O 0.80548 0.46538 0.77870
O33 O 0.55496 0.89756 0.40933
O34 O 0.60244 0.55496 0.15933
O35 O 0.44504 0.10244 0.40933
O36 O 0.39756 0.44504 0.15933
O37 O 0.55496 0.60244 0.84067
O38 O 0.10244 0.44504 0.59067
O39 O 0.44504 0.39756 0.84067
O40 O 0.89756 0.55496 0.59067
O41 O 0.94504 0.10244 0.84067
O42 O 0.89756 0.44504 0.09067
O43 O 0.05496 0.89756 0.84067
O44 O 0.10244 0.55496 0.09067
O45 O 0.44504 0.89756 0.90933
O46 O 0.89756 0.05496 0.15933
O47 O 0.55496 0.10244 0.90933
O48 O 0.10244 0.94504 0.15933
O49 O 0.05496 0.39756 0.90933
O50 O 0.10244 0.05496 0.65933
O51 O 0.94504 0.60244 0.90933
O52 O 0.89756 0.94504 0.65933
O53 O 0.05496 0.10244 0.34067
O54 O 0.60244 0.94504 0.09067
O55 O 0.94504 0.89756 0.34067
O56 O 0.39756 0.05496 0.09067
O57 O 0.44504 0.60244 0.34067
O58 O 0.39756 0.94504 0.59067
O59 O 0.55496 0.39756 0.34067
O60 O 0.60244 0.05496 0.59067
O61 O 0.94504 0.39756 0.40933
O62 O 0.39756 0.55496 0.65933
O63 O 0.05496 0.60244 0.40933
O64 O 0.60244 0.44504 0.65933
O65 O 0.65082 0.72323 0.32124
O66 O 0.77677 0.65082 0.07124
O67 O 0.34918 0.27677 0.32124
O68 O 0.22323 0.34918 0.07124
O69 O 0.65082 0.77677 0.92876
O70 O 0.27677 0.34918 0.67876
O71 O 0.34918 0.22323 0.92876
O72 O 0.72323 0.65082 0.67876
O73 O 0.84918 0.27677 0.92876
O74 O 0.72323 0.34918 0.17876
O75 O 0.15082 0.72323 0.92876
O76 O 0.27677 0.65082 0.17876
O77 O 0.34918 0.72323 0.82124
O78 O 0.72323 0.15082 0.07124
O79 O 0.65082 0.27677 0.82124
O80 O 0.27677 0.84918 0.07124
O81 O 0.15082 0.22323 0.82124
O82 O 0.27677 0.15082 0.57124
O83 O 0.84918 0.77677 0.82124
O84 O 0.72323 0.84918 0.57124
O85 O 0.15082 0.27677 0.42876
O86 O 0.77677 0.84918 0.17876
O87 O 0.84918 0.72323 0.42876
O88 O 0.22323 0.15082 0.17876
O89 O 0.34918 0.77677 0.42876
O90 O 0.22323 0.84918 0.67876
O91 O 0.65082 0.22323 0.42876
O92 O 0.77677 0.15082 0.67876
O93 O 0.84918 0.22323 0.32124
O94 O 0.22323 0.65082 0.57124
O95 O 0.15082 0.77677 0.32124
O96 O 0.77677 0.34918 0.57124
Zr1 Zr 0.50000 0.75000 0.37500
Zr2 Zr 0.75000 0.50000 0.12500
Zr3 Zr 0.50000 0.25000 0.37500
Zr4 Zr 0.25000 0.50000 0.12500
Zr5 Zr 0.50000 0.75000 0.87500
Zr6 Zr 0.25000 0.50000 0.62500
Zr7 Zr 0.50000 0.25000 0.87500
Zr8 Zr 0.75000 0.50000 0.62500
Zr9 Zr 0.00000 0.25000 0.87500
Zr10 Zr 0.00000 0.75000 0.87500
Zr11 Zr 0.75000 0.00000 0.12500
Zr12 Zr 0.25000 0.00000 0.12500
Zr13 Zr 0.25000 0.00000 0.62500
Zr14 Zr 0.75000 0.00000 0.62500
Zr15 Zr 0.00000 0.25000 0.37500
Zr16 Zr 0.00000 0.75000 0.37500
La1 La 0.62737 0.75000 0.12500
La2 La 0.75000 0.62737 0.87500
La3 La 0.37263 0.25000 0.12500
La4 La 0.25000 0.37263 0.87500
La5 La 0.87263 0.25000 0.12500
La6 La 0.75000 0.37263 0.37500
La7 La 0.12737 0.75000 0.12500
La8 La 0.25000 0.62737 0.37500
La9 La 0.37263 0.75000 0.62500
La10 La 0.75000 0.12737 0.87500
La11 La 0.62737 0.25000 0.62500
La12 La 0.25000 0.87263 0.87500
La13 La 0.12737 0.25000 0.62500
La14 La 0.25000 0.12737 0.37500
La15 La 0.87263 0.75000 0.62500
La16 La 0.75000 0.87263 0.37500
La17 La 0.50000 0.50000 0.50000
La18 La 0.00000 0.50000 0.25000
La19 La 0.50000 0.00000 0.75000
La20 La 0.00000 0.50000 0.75000
La21 La 0.50000 0.50000 0.00000
La22 La 0.50000 0.00000 0.25000
La23 La 0.00000 0.00000 0.00000
La24 La 0.00000 0.00000 0.50000
#End of li7la3zr2o12
