data_li7la3zr2o12
_cell_length_a                      13.23607
_cell_length_b                      13.23607
_cell_length_c                      12.701706
_cell_angle_alpha                   90.0
_cell_angle_beta                    90.0
_cell_angle_gamma                   90.0
_symmetry_space_group_name_H-M      P1
loop_
_space_group_symop_id
_space_group_symop_operation_xyz
1 x,y,z
loop_
_atom_site_label
_atom_site_type_symbol
_atom_site_fract_x
_atom_site_fract_y
_atom_site_fract_z
X1 X 0.61992 0.37890 0.67636
X2 X 0.61818 0.38228 0.67763
X3 X 0.61648 0.38575 0.67873
X4 X 0.61483 0.38928 0.67963
X5 X 0.61328 0.39293 0.68016
X6 X 0.61150 0.39797 0.68011
X7 X 0.61164 0.39992 0.67918
X8 X 0.61282 0.40266 0.67640
X9 X 0.61430 0.40482 0.67325
X10 X 0.61592 0.40661 0.66994
X11 X 0.61766 0.40812 0.66653
X12 X 0.61948 0.40942 0.66307
X13 X 0.62136 0.41054 0.65959
X14 X 0.62337 0.41140 0.65610
X15 X 0.62537 0.41225 0.65260
X16 X 0.62742 0.41298 0.64911
X17 X 0.62953 0.41359 0.64563
X18 X 0.63168 0.41408 0.64215
X19 X 0.63387 0.41445 0.63869
X20 X 0.63609 0.41471 0.63524
X21 X 0.63835 0.41486 0.63181
X22 X 0.64065 0.41490 0.62839
X23 X 0.64296 0.41484 0.62500
X24 X 0.64531 0.41466 0.62163
X25 X 0.64768 0.41430 0.61830
X26 X 0.65006 0.41393 0.61497
X27 X 0.65245 0.41347 0.61167
X28 X 0.65485 0.41291 0.60839
X29 X 0.65726 0.41226 0.60513
X30 X 0.65967 0.41154 0.60189
X31 X 0.66209 0.41076 0.59868
X32 X 0.66450 0.40992 0.59547
X33 X 0.66689 0.40907 0.59225
X34 X 0.66928 0.40824 0.58902
X35 X 0.67164 0.40744 0.58577
X36 X 0.67393 0.40688 0.58240
X37 X 0.67610 0.40658 0.57892
X38 X 0.67814 0.40655 0.57533
X39 X 0.67965 0.40718 0.57153
X40 X 0.68054 0.40821 0.56761
X41 X 0.68083 0.40937 0.56364
X42 X 0.68065 0.41051 0.55965
X43 X 0.68004 0.41144 0.55565
X44 X 0.67936 0.41233 0.55165
X45 X 0.67853 0.41308 0.54765
X46 X 0.67760 0.41369 0.54365
X47 X 0.67662 0.41416 0.53964
X48 X 0.67562 0.41450 0.53562
X49 X 0.67463 0.41473 0.53159
X50 X 0.67365 0.41484 0.52755
X51 X 0.67270 0.41484 0.52351
X52 X 0.67180 0.41473 0.51945
X53 X 0.67094 0.41452 0.51538
X54 X 0.67015 0.41421 0.51131
X55 X 0.66943 0.41380 0.50724
X56 X 0.66877 0.41330 0.50316
X57 X 0.66815 0.41276 0.49909
X58 X 0.66769 0.41204 0.49501
X59 X 0.66724 0.41132 0.49094
X60 X 0.66697 0.41043 0.48689
X61 X 0.66675 0.40951 0.48285
X62 X 0.66667 0.40848 0.47882
X63 X 0.66668 0.40739 0.47481
X64 X 0.66680 0.40623 0.47083
X65 X 0.66692 0.40508 0.46684
X66 X 0.66729 0.40381 0.46291
X67 X 0.66783 0.40249 0.45901
X68 X 0.66855 0.40113 0.45517
X69 X 0.66951 0.39975 0.45139
X70 X 0.67084 0.39836 0.44774
X71 X 0.67246 0.39698 0.44421
X72 X 0.67466 0.39565 0.44102
X73 X 0.67876 0.39398 0.43806
X74 X 0.67578 0.39616 0.43760
X75 X 0.67326 0.39858 0.43557
X76 X 0.67084 0.40095 0.43336
X77 X 0.66854 0.40330 0.43099
X78 X 0.66628 0.40564 0.42857
X79 X 0.66419 0.40800 0.42600
X80 X 0.66210 0.41036 0.42344
X81 X 0.66022 0.41275 0.42074
X82 X 0.65839 0.41514 0.41800
X83 X 0.65676 0.41755 0.41514
X84 X 0.65524 0.41995 0.41221
X85 X 0.65387 0.42236 0.40921
X86 X 0.65249 0.42476 0.40620
X87 X 0.65141 0.42715 0.40306
X88 X 0.65049 0.42953 0.39985
X89 X 0.64969 0.43190 0.39659
X90 X 0.64899 0.43425 0.39331
X91 X 0.64833 0.43661 0.39001
X92 X 0.64762 0.43898 0.38674
X93 X 0.64676 0.44138 0.38353
X94 X 0.64564 0.44383 0.38045
X95 X 0.64422 0.44630 0.37754
X96 X 0.64257 0.44880 0.37477
X97 X 0.64082 0.45131 0.37209
X98 X 0.63907 0.45383 0.36942
X99 X 0.63741 0.45638 0.36671
X100 X 0.63583 0.45894 0.36397
X101 X 0.63442 0.46152 0.36115
X102 X 0.63316 0.46411 0.35826
X103 X 0.63204 0.46671 0.35532
X104 X 0.63100 0.46931 0.35234
X105 X 0.63014 0.47188 0.34928
X106 X 0.62942 0.47442 0.34615
X107 X 0.62881 0.47690 0.34295
X108 X 0.62828 0.47934 0.33969
X109 X 0.62789 0.48166 0.33632
X110 X 0.62761 0.48386 0.33286
X111 X 0.62743 0.48593 0.32930
X112 X 0.62730 0.48793 0.32569
X113 X 0.62732 0.48977 0.32200
X114 X 0.62764 0.49247 0.31724
X115 X 0.62761 0.49380 0.31464
X116 X 0.62571 0.49551 0.31143
X117 X 0.62265 0.49730 0.30950
X118 X 0.61939 0.49910 0.30801
X119 X 0.61603 0.50093 0.30678
X120 X 0.61253 0.50281 0.30630
X121 X 0.60901 0.50470 0.30633
X122 X 0.60555 0.50655 0.30715
X123 X 0.60220 0.50834 0.30844
X124 X 0.59892 0.51008 0.30998
X125 X 0.59569 0.51180 0.31165
X126 X 0.59247 0.51351 0.31336
X127 X 0.58921 0.51524 0.31498
X128 X 0.58596 0.51697 0.31659
X129 X 0.58268 0.51872 0.31813
X130 X 0.57937 0.52048 0.31958
X131 X 0.57603 0.52226 0.32092
X132 X 0.57265 0.52405 0.32214
X133 X 0.56925 0.52586 0.32325
X134 X 0.56582 0.52769 0.32423
X135 X 0.56237 0.52953 0.32509
X136 X 0.55890 0.53138 0.32582
X137 X 0.55541 0.53324 0.32642
X138 X 0.55190 0.53511 0.32690
X139 X 0.54839 0.53698 0.32733
X140 X 0.54487 0.53886 0.32749
X141 X 0.54134 0.54074 0.32766
X142 X 0.53781 0.54262 0.32757
X143 X 0.53429 0.54450 0.32742
X144 X 0.53077 0.54638 0.32716
X145 X 0.52725 0.54825 0.32678
X146 X 0.52375 0.55011 0.32628
X147 X 0.52026 0.55197 0.32567
X148 X 0.51678 0.55381 0.32495
X149 X 0.51331 0.55565 0.32413
X150 X 0.50987 0.55747 0.32322
X151 X 0.50643 0.55929 0.32223
X152 X 0.50301 0.56109 0.32117
X153 X 0.49960 0.56289 0.32005
X154 X 0.49619 0.56468 0.31894
X155 X 0.49279 0.56646 0.31777
X156 X 0.48939 0.56824 0.31661
X157 X 0.48597 0.57001 0.31549
X158 X 0.48253 0.57180 0.31446
X159 X 0.47907 0.57359 0.31356
X160 X 0.47557 0.57539 0.31284
X161 X 0.47204 0.57720 0.31232
X162 X 0.46849 0.57902 0.31203
X163 X 0.46492 0.58083 0.31197
X164 X 0.46136 0.58264 0.31212
X165 X 0.45780 0.58446 0.31228
X166 X 0.45426 0.58625 0.31278
X167 X 0.45073 0.58803 0.31341
X168 X 0.44722 0.58980 0.31414
X169 X 0.44371 0.59156 0.31492
X170 X 0.44020 0.59332 0.31574
X171 X 0.43669 0.59507 0.31655
X172 X 0.43318 0.59681 0.31735
X173 X 0.42965 0.59855 0.31811
X174 X 0.42611 0.60028 0.31880
X175 X 0.42254 0.60198 0.31941
X176 X 0.41897 0.60369 0.32002
X177 X 0.41535 0.60534 0.32043
X178 X 0.41169 0.60692 0.32068
X179 X 0.40798 0.60840 0.32075
X180 X 0.40421 0.60975 0.32063
X181 X 0.40040 0.61089 0.32024
X182 X 0.39797 0.61150 0.31989
X183 X 0.39293 0.61328 0.31984
X184 X 0.38928 0.61483 0.32037
X185 X 0.38575 0.61648 0.32127
X186 X 0.38228 0.61818 0.32237
X187 X 0.37890 0.61992 0.32364
Li1 Li 0.62149 0.37851 0.68086
Li2 Li 0.20344 0.62149 0.43086
Li3 Li 0.46046 0.70344 0.68086
Li4 Li 0.87851 0.46046 0.43086
Li5 Li 0.62149 0.20344 0.56914
Li6 Li 0.70344 0.46046 0.31914
Li7 Li 0.46046 0.87851 0.56914
Li8 Li 0.37851 0.62149 0.31914
Li9 Li 0.96046 0.70344 0.56914
Li10 Li 0.37851 0.46046 0.81914
Li11 Li 0.12149 0.37851 0.56914
Li12 Li 0.70344 0.62149 0.81914
Li13 Li 0.46046 0.37851 0.18086
Li14 Li 0.37851 0.12149 0.43086
Li15 Li 0.62149 0.70344 0.18086
Li16 Li 0.70344 0.96046 0.43086
Li17 Li 0.12149 0.87851 0.18086
Li18 Li 0.70344 0.12149 0.93086
Li19 Li 0.96046 0.20344 0.18086
Li20 Li 0.37851 0.96046 0.93086
Li21 Li 0.12149 0.70344 0.06914
Li22 Li 0.20344 0.96046 0.81914
Li23 Li 0.96046 0.37851 0.06914
Li24 Li 0.87851 0.12149 0.81914
Li25 Li 0.46046 0.20344 0.06914
Li26 Li 0.87851 0.96046 0.31914
Li27 Li 0.62149 0.87851 0.06914
Li28 Li 0.20344 0.12149 0.31914
Li29 Li 0.96046 0.87851 0.68086
Li30 Li 0.87851 0.62149 0.93086
Li31 Li 0.12149 0.20344 0.68086
Li32 Li 0.20344 0.46046 0.93086
Li33 Li 0.72219 0.72219 0.00000
Li34 Li 0.85976 0.72219 0.75000
Li35 Li 0.35976 0.35976 0.00000
Li36 Li 0.22219 0.35976 0.75000
Li37 Li 0.72219 0.85976 0.25000
Li38 Li 0.35976 0.22219 0.25000
Li39 Li 0.85976 0.35976 0.25000
Li40 Li 0.72219 0.35976 0.50000
Li41 Li 0.22219 0.72219 0.25000
Li42 Li 0.35976 0.72219 0.50000
Li43 Li 0.72219 0.22219 0.75000
Li44 Li 0.35976 0.85976 0.75000
Li45 Li 0.22219 0.22219 0.50000
Li46 Li 0.85976 0.85976 0.50000
Li47 Li 0.22219 0.85976 0.00000
Li48 Li 0.85976 0.22219 0.00000
Li49 Li 0.54097 0.54097 0.75000
Li50 Li 0.04097 0.54097 0.50000
Li51 Li 0.54097 0.04097 0.50000
Li52 Li 0.54097 0.54097 0.25000
Li53 Li 0.04097 0.04097 0.25000
Li54 Li 0.54097 0.04097 0.00000
Li55 Li 0.04097 0.54097 0.00000
Li56 Li 0.04097 0.04097 0.75000
O1 O 0.57559 0.73549 0.02870
O2 O 0.84646 0.57559 0.77870
O3 O 0.50636 0.34646 0.02870
O4 O 0.23549 0.50636 0.77870
O5 O 0.57559 0.84646 0.22130
O6 O 0.34646 0.50636 0.97130
O7 O 0.50636 0.23549 0.22130
O8 O 0.73549 0.57559 0.97130
O9 O 0.00636 0.34646 0.22130
O10 O 0.73549 0.50636 0.47130
O11 O 0.07559 0.73549 0.22130
O12 O 0.34646 0.57559 0.47130
O13 O 0.50636 0.73549 0.52870
O14 O 0.73549 0.07559 0.77870
O15 O 0.57559 0.34646 0.52870
O16 O 0.34646 0.00636 0.77870
O17 O 0.07559 0.23549 0.52870
O18 O 0.34646 0.07559 0.27870
O19 O 0.00636 0.84646 0.52870
O20 O 0.73549 0.00636 0.27870
O21 O 0.07559 0.34646 0.72130
O22 O 0.84646 0.00636 0.47130
O23 O 0.00636 0.73549 0.72130
O24 O 0.23549 0.07559 0.47130
O25 O 0.50636 0.84646 0.72130
O26 O 0.23549 0.00636 0.97130
O27 O 0.57559 0.23549 0.72130
O28 O 0.84646 0.07559 0.97130
O29 O 0.00636 0.23549 0.02870
O30 O 0.23549 0.57559 0.27870
O31 O 0.07559 0.84646 0.02870
O32 O 0.84646 0.50636 0.27870
O33 O 0.59594 0.93853 0.90933
O34 O 0.64342 0.59594 0.65933
O35 O 0.48601 0.14342 0.90933
O36 O 0.43853 0.48601 0.65933
O37 O 0.59594 0.64342 0.34067
O38 O 0.14342 0.48601 0.09067
O39 O 0.48601 0.43853 0.34067
O40 O 0.93853 0.59594 0.09067
O41 O 0.98601 0.14342 0.34067
O42 O 0.93853 0.48601 0.59067
O43 O 0.09594 0.93853 0.34067
O44 O 0.14342 0.59594 0.59067
O45 O 0.48601 0.93853 0.40933
O46 O 0.93853 0.09594 0.65933
O47 O 0.59594 0.14342 0.40933
O48 O 0.14342 0.98601 0.65933
O49 O 0.09594 0.43853 0.40933
O50 O 0.14342 0.09594 0.15933
O51 O 0.98601 0.64342 0.40933
O52 O 0.93853 0.98601 0.15933
O53 O 0.09594 0.14342 0.84067
O54 O 0.64342 0.98601 0.59067
O55 O 0.98601 0.93853 0.84067
O56 O 0.43853 0.09594 0.59067
O57 O 0.48601 0.64342 0.84067
O58 O 0.43853 0.98601 0.09067
O59 O 0.59594 0.43853 0.84067
O60 O 0.64342 0.09594 0.09067
O61 O 0.98601 0.43853 0.90933
O62 O 0.43853 0.59594 0.15933
O63 O 0.09594 0.64342 0.90933
O64 O 0.64342 0.48601 0.15933
O65 O 0.69180 0.76420 0.82124
O66 O 0.81775 0.69180 0.57124
O67 O 0.39015 0.31775 0.82124
O68 O 0.26420 0.39015 0.57124
O69 O 0.69180 0.81775 0.42876
O70 O 0.31775 0.39015 0.17876
O71 O 0.39015 0.26420 0.42876
O72 O 0.76420 0.69180 0.17876
O73 O 0.89015 0.31775 0.42876
O74 O 0.76420 0.39015 0.67876
O75 O 0.19180 0.76420 0.42876
O76 O 0.31775 0.69180 0.67876
O77 O 0.39015 0.76420 0.32124
O78 O 0.76420 0.19180 0.57124
O79 O 0.69180 0.31775 0.32124
O80 O 0.31775 0.89015 0.57124
O81 O 0.19180 0.26420 0.32124
O82 O 0.31775 0.19180 0.07124
O83 O 0.89015 0.81775 0.32124
O84 O 0.76420 0.89015 0.07124
O85 O 0.19180 0.31775 0.92876
O86 O 0.81775 0.89015 0.67876
O87 O 0.89015 0.76420 0.92876
O88 O 0.26420 0.19180 0.67876
O89 O 0.39015 0.81775 0.92876
O90 O 0.26420 0.89015 0.17876
O91 O 0.69180 0.26420 0.92876
O92 O 0.81775 0.19180 0.17876
O93 O 0.89015 0.26420 0.82124
O94 O 0.26420 0.69180 0.07124
O95 O 0.19180 0.81775 0.82124
O96 O 0.81775 0.39015 0.07124
Zr1 Zr 0.54097 0.79097 0.87500
Zr2 Zr 0.79097 0.54097 0.62500
Zr3 Zr 0.54097 0.29097 0.87500
Zr4 Zr 0.29097 0.54097 0.62500
Zr5 Zr 0.54097 0.79097 0.37500
Zr6 Zr 0.29097 0.54097 0.12500
Zr7 Zr 0.54097 0.29097 0.37500
Zr8 Zr 0.79097 0.54097 0.12500
Zr9 Zr 0.04097 0.29097 0.37500
Zr10 Zr 0.04097 0.79097 0.37500
Zr11 Zr 0.79097 0.04097 0.62500
Zr12 Zr 0.29097 0.04097 0.62500
Zr13 Zr 0.29097 0.04097 0.12500
Zr14 Zr 0.79097 0.04097 0.12500
Zr15 Zr 0.04097 0.29097 0.87500
Zr16 Zr 0.04097 0.79097 0.87500
La1 La 0.66834 0.79097 0.62500
La2 La 0.79097 0.66834 0.37500
La3 La 0.41361 0.29097 0.62500
La4 La 0.29097 0.41361 0.37500
La5 La 0.91361 0.29097 0.62500
La6 La 0.79097 0.41361 0.87500
La7 La 0.16834 0.79097 0.62500
La8 La 0.29097 0.66834 0.87500
La9 La 0.41361 0.79097 0.12500
La10 La 0.79097 0.16834 0.37500
La11 La 0.66834 0.29097 0.12500
La12 La 0.29097 0.91361 0.37500
La13 La 0.16834 0.29097 0.12500
La14 La 0.29097 0.16834 0.87500
La15 La 0.91361 0.79097 0.12500
La16 La 0.79097 0.91361 0.87500
La17 La 0.54097 0.54097 0.00000
La18 La 0.04097 0.54097 0.75000
La19 La 0.54097 0.04097 0.25000
La20 La 0.04097 0.54097 0.25000
La21 La 0.54097 0.54097 0.50000
La22 La 0.54097 0.04097 0.75000
La23 La 0.04097 0.04097 0.50000
La24 La 0.04097 0.04097 0.00000
#End of li7la3zr2o12
