data_li7la3zr2o12
_cell_length_a                      13.23607
_cell_length_b                      13.23607
_cell_length_c                      12.701706
_cell_angle_alpha                   90.0
_cell_angle_beta                    90.0
_cell_angle_gamma                   90.0
_symmetry_space_group_name_H-M      P1
loop_
_space_group_symop_id
_space_group_symop_operation_xyz
1 x,y,z
loop_
_atom_site_label
_atom_site_type_symbol
_atom_site_fract_x
_atom_site_fract_y
_atom_site_fract_z
X1 X 0.57896 0.50038 0.74550
X2 X 0.57722 0.50377 0.74677
X3 X 0.57552 0.50723 0.74787
X4 X 0.57387 0.51077 0.74878
X5 X 0.57232 0.51442 0.74931
X6 X 0.57054 0.51946 0.74926
X7 X 0.57066 0.52139 0.74835
X8 X 0.57184 0.52413 0.74558
X9 X 0.57332 0.52630 0.74243
X10 X 0.57494 0.52809 0.73912
X11 X 0.57668 0.52960 0.73571
X12 X 0.57849 0.53090 0.73225
X13 X 0.58038 0.53202 0.72877
X14 X 0.58238 0.53288 0.72527
X15 X 0.58438 0.53374 0.72178
X16 X 0.58644 0.53447 0.71829
X17 X 0.58854 0.53507 0.71480
X18 X 0.59069 0.53556 0.71133
X19 X 0.59288 0.53594 0.70786
X20 X 0.59511 0.53620 0.70441
X21 X 0.59737 0.53635 0.70098
X22 X 0.59966 0.53639 0.69757
X23 X 0.60198 0.53633 0.69417
X24 X 0.60432 0.53615 0.69080
X25 X 0.60670 0.53579 0.68747
X26 X 0.60907 0.53542 0.68415
X27 X 0.61146 0.53496 0.68084
X28 X 0.61387 0.53440 0.67756
X29 X 0.61627 0.53376 0.67431
X30 X 0.61869 0.53304 0.67107
X31 X 0.62110 0.53225 0.66785
X32 X 0.62351 0.53141 0.66464
X33 X 0.62591 0.53056 0.66143
X34 X 0.62829 0.52973 0.65820
X35 X 0.63066 0.52893 0.65495
X36 X 0.63294 0.52836 0.65158
X37 X 0.63512 0.52806 0.64810
X38 X 0.63716 0.52802 0.64451
X39 X 0.63867 0.52866 0.64072
X40 X 0.63957 0.52968 0.63680
X41 X 0.63986 0.53085 0.63283
X42 X 0.63968 0.53198 0.62884
X43 X 0.63908 0.53292 0.62483
X44 X 0.63840 0.53381 0.62084
X45 X 0.63757 0.53456 0.61684
X46 X 0.63664 0.53517 0.61283
X47 X 0.63566 0.53565 0.60882
X48 X 0.63466 0.53599 0.60481
X49 X 0.63366 0.53622 0.60078
X50 X 0.63268 0.53633 0.59674
X51 X 0.63174 0.53633 0.59269
X52 X 0.63083 0.53622 0.58864
X53 X 0.62998 0.53601 0.58457
X54 X 0.62919 0.53570 0.58050
X55 X 0.62846 0.53530 0.57643
X56 X 0.62780 0.53480 0.57235
X57 X 0.62718 0.53426 0.56827
X58 X 0.62672 0.53355 0.56420
X59 X 0.62626 0.53283 0.56013
X60 X 0.62599 0.53194 0.55608
X61 X 0.62577 0.53101 0.55204
X62 X 0.62568 0.52998 0.54801
X63 X 0.62569 0.52889 0.54400
X64 X 0.62581 0.52774 0.54001
X65 X 0.62593 0.52659 0.53603
X66 X 0.62629 0.52533 0.53209
X67 X 0.62682 0.52401 0.52820
X68 X 0.62753 0.52265 0.52435
X69 X 0.62848 0.52127 0.52057
X70 X 0.62980 0.51988 0.51691
X71 X 0.63140 0.51851 0.51337
X72 X 0.63358 0.51719 0.51016
X73 X 0.63771 0.51549 0.50713
X74 X 0.63511 0.51735 0.50683
X75 X 0.63252 0.51978 0.50492
X76 X 0.63012 0.52214 0.50267
X77 X 0.62781 0.52449 0.50030
X78 X 0.62554 0.52682 0.49789
X79 X 0.62344 0.52918 0.49533
X80 X 0.62134 0.53154 0.49277
X81 X 0.61944 0.53392 0.49007
X82 X 0.61760 0.53630 0.48734
X83 X 0.61589 0.53870 0.48451
X84 X 0.61432 0.54109 0.48161
X85 X 0.61290 0.54349 0.47862
X86 X 0.61164 0.54588 0.47555
X87 X 0.61054 0.54826 0.47241
X88 X 0.60958 0.55063 0.46920
X89 X 0.60875 0.55298 0.46595
X90 X 0.60801 0.55532 0.46266
X91 X 0.60729 0.55766 0.45937
X92 X 0.60656 0.56001 0.45608
X93 X 0.60572 0.56237 0.45283
X94 X 0.60459 0.56477 0.44972
X95 X 0.60322 0.56719 0.44673
X96 X 0.60158 0.56962 0.44389
X97 X 0.59981 0.57204 0.44114
X98 X 0.59803 0.57446 0.43839
X99 X 0.59629 0.57689 0.43561
X100 X 0.59470 0.57931 0.43274
X101 X 0.59319 0.58172 0.42982
X102 X 0.59186 0.58413 0.42679
X103 X 0.59062 0.58651 0.42371
X104 X 0.58949 0.58887 0.42056
X105 X 0.58854 0.59117 0.41729
X106 X 0.58767 0.59343 0.41398
X107 X 0.58695 0.59558 0.41055
X108 X 0.58630 0.59766 0.40706
X109 X 0.58579 0.59959 0.40345
X110 X 0.58533 0.60143 0.39978
X111 X 0.58494 0.60314 0.39604
X112 X 0.58467 0.60464 0.39218
X113 X 0.58444 0.60602 0.38828
X114 X 0.58419 0.60777 0.38291
X115 X 0.58302 0.60256 0.38131
X116 X 0.58244 0.59882 0.37997
X117 X 0.58202 0.59509 0.37853
X118 X 0.58174 0.59139 0.37699
X119 X 0.58156 0.58771 0.37536
X120 X 0.58150 0.58412 0.37354
X121 X 0.58145 0.58061 0.37155
X122 X 0.58137 0.57716 0.36944
X123 X 0.58090 0.57393 0.36703
X124 X 0.58009 0.57086 0.36451
X125 X 0.57857 0.56813 0.36190
X126 X 0.57680 0.56555 0.35931
X127 X 0.57476 0.56316 0.35674
X128 X 0.57267 0.56081 0.35417
X129 X 0.57053 0.55851 0.35159
X130 X 0.56835 0.55624 0.34901
X131 X 0.56617 0.55400 0.34642
X132 X 0.56398 0.55178 0.34381
X133 X 0.56175 0.54964 0.34117
X134 X 0.55952 0.54749 0.33853
X135 X 0.55725 0.54544 0.33585
X136 X 0.55495 0.54342 0.33317
X137 X 0.55262 0.54147 0.33047
X138 X 0.55024 0.53959 0.32776
X139 X 0.54781 0.53779 0.32503
X140 X 0.54533 0.53608 0.32229
X141 X 0.54279 0.53446 0.31954
X142 X 0.54020 0.53295 0.31679
X143 X 0.53755 0.53154 0.31404
X144 X 0.53484 0.53024 0.31129
X145 X 0.53208 0.52904 0.30855
X146 X 0.52926 0.52796 0.30582
X147 X 0.52645 0.52687 0.30308
X148 X 0.52354 0.52599 0.30037
X149 X 0.52059 0.52521 0.29768
X150 X 0.51759 0.52453 0.29502
X151 X 0.51456 0.52394 0.29237
X152 X 0.51149 0.52344 0.28976
X153 X 0.50838 0.52302 0.28718
X154 X 0.50523 0.52268 0.28463
X155 X 0.50205 0.52240 0.28212
X156 X 0.49884 0.52218 0.27966
X157 X 0.49559 0.52202 0.27724
X158 X 0.49234 0.52186 0.27482
X159 X 0.48902 0.52179 0.27250
X160 X 0.48565 0.52175 0.27025
X161 X 0.48224 0.52175 0.26807
X162 X 0.47879 0.52177 0.26598
X163 X 0.47528 0.52180 0.26397
X164 X 0.47172 0.52185 0.26207
X165 X 0.46811 0.52189 0.26029
X166 X 0.46445 0.52194 0.25862
X167 X 0.46073 0.52197 0.25708
X168 X 0.45697 0.52197 0.25568
X169 X 0.45320 0.52198 0.25428
X170 X 0.44936 0.52193 0.25313
X171 X 0.44548 0.52182 0.25212
X172 X 0.44158 0.52164 0.25123
X173 X 0.43766 0.52135 0.25047
X174 X 0.43374 0.52093 0.24978
X175 X 0.42946 0.51946 0.24926
X176 X 0.42768 0.51442 0.24931
X177 X 0.42613 0.51077 0.24878
X178 X 0.42448 0.50723 0.24787
X179 X 0.42278 0.50377 0.24677
X180 X 0.42104 0.50038 0.24550
Li1 Li 0.58052 0.50000 0.75000
Li2 Li 0.16247 0.74298 0.50000
Li3 Li 0.41948 0.82493 0.75000
Li4 Li 0.83753 0.58195 0.50000
Li5 Li 0.58052 0.32493 0.63829
Li6 Li 0.66247 0.58195 0.38829
Li7 Li 0.41948 0.00000 0.63829
Li8 Li 0.33753 0.74298 0.38829
Li9 Li 0.91948 0.82493 0.63829
Li10 Li 0.33753 0.58195 0.88829
Li11 Li 0.08052 0.50000 0.63829
Li12 Li 0.66247 0.74298 0.88829
Li13 Li 0.41948 0.50000 0.25000
Li14 Li 0.33753 0.24298 0.50000
Li15 Li 0.58052 0.82493 0.25000
Li16 Li 0.66247 0.08195 0.50000
Li17 Li 0.08052 0.00000 0.25000
Li18 Li 0.66247 0.24298 0.00000
Li19 Li 0.91948 0.32493 0.25000
Li20 Li 0.33753 0.08195 0.00000
Li21 Li 0.08052 0.82493 0.13829
Li22 Li 0.16247 0.08195 0.88829
Li23 Li 0.91948 0.50000 0.13829
Li24 Li 0.83753 0.24298 0.88829
Li25 Li 0.41948 0.32493 0.13829
Li26 Li 0.83753 0.08195 0.38829
Li27 Li 0.58052 0.00000 0.13829
Li28 Li 0.16247 0.24298 0.38829
Li29 Li 0.91948 0.00000 0.75000
Li30 Li 0.83753 0.74298 0.00000
Li31 Li 0.08052 0.32493 0.75000
Li32 Li 0.16247 0.58195 0.00000
Li33 Li 0.68121 0.84368 0.06914
Li34 Li 0.81879 0.84368 0.81914
Li35 Li 0.31879 0.48125 0.06914
Li36 Li 0.18121 0.48125 0.81914
Li37 Li 0.68121 0.98125 0.31914
Li38 Li 0.31879 0.34368 0.31914
Li39 Li 0.81879 0.48125 0.31914
Li40 Li 0.68121 0.48125 0.56914
Li41 Li 0.18121 0.84368 0.31914
Li42 Li 0.31879 0.84368 0.56914
Li43 Li 0.68121 0.34368 0.81914
Li44 Li 0.31879 0.98125 0.81914
Li45 Li 0.18121 0.34368 0.56914
Li46 Li 0.81879 0.98125 0.56914
Li47 Li 0.18121 0.98125 0.06914
Li48 Li 0.81879 0.34368 0.06914
Li49 Li 0.50000 0.66247 0.81914
Li50 Li 0.00000 0.66247 0.56914
Li51 Li 0.50000 0.16247 0.56914
Li52 Li 0.50000 0.66247 0.31914
Li53 Li 0.00000 0.16247 0.31914
Li54 Li 0.50000 0.16247 0.06914
Li55 Li 0.00000 0.66247 0.06914
Li56 Li 0.00000 0.16247 0.81914
O1 O 0.53462 0.85698 0.09785
O2 O 0.80548 0.69708 0.84785
O3 O 0.46538 0.46795 0.09785
O4 O 0.19452 0.62785 0.84785
O5 O 0.53462 0.96795 0.29044
O6 O 0.30548 0.62785 0.04044
O7 O 0.46538 0.35698 0.29044
O8 O 0.69452 0.69708 0.04044
O9 O 0.96538 0.46795 0.29044
O10 O 0.69452 0.62785 0.54044
O11 O 0.03462 0.85698 0.29044
O12 O 0.30548 0.69708 0.54044
O13 O 0.46538 0.85698 0.59785
O14 O 0.69452 0.19708 0.84785
O15 O 0.53462 0.46795 0.59785
O16 O 0.30548 0.12785 0.84785
O17 O 0.03462 0.35698 0.59785
O18 O 0.30548 0.19708 0.34785
O19 O 0.96538 0.96795 0.59785
O20 O 0.69452 0.12785 0.34785
O21 O 0.03462 0.46795 0.79044
O22 O 0.80548 0.12785 0.54044
O23 O 0.96538 0.85698 0.79044
O24 O 0.19452 0.19708 0.54044
O25 O 0.46538 0.96795 0.79044
O26 O 0.19452 0.12785 0.04044
O27 O 0.53462 0.35698 0.79044
O28 O 0.80548 0.19708 0.04044
O29 O 0.96538 0.35698 0.09785
O30 O 0.19452 0.69708 0.34785
O31 O 0.03462 0.96795 0.09785
O32 O 0.80548 0.62785 0.34785
O33 O 0.55496 0.06002 0.97848
O34 O 0.60244 0.71743 0.72848
O35 O 0.44504 0.26491 0.97848
O36 O 0.39756 0.60750 0.72848
O37 O 0.55496 0.76491 0.40981
O38 O 0.10244 0.60750 0.15981
O39 O 0.44504 0.56002 0.40981
O40 O 0.89756 0.71743 0.15981
O41 O 0.94504 0.26491 0.40981
O42 O 0.89756 0.60750 0.65981
O43 O 0.05496 0.06002 0.40981
O44 O 0.10244 0.71743 0.65981
O45 O 0.44504 0.06002 0.47848
O46 O 0.89756 0.21743 0.72848
O47 O 0.55496 0.26491 0.47848
O48 O 0.10244 0.10750 0.72848
O49 O 0.05496 0.56002 0.47848
O50 O 0.10244 0.21743 0.22848
O51 O 0.94504 0.76491 0.47848
O52 O 0.89756 0.10750 0.22848
O53 O 0.05496 0.26491 0.90981
O54 O 0.60244 0.10750 0.65981
O55 O 0.94504 0.06002 0.90981
O56 O 0.39756 0.21743 0.65981
O57 O 0.44504 0.76491 0.90981
O58 O 0.39756 0.10750 0.15981
O59 O 0.55496 0.56002 0.90981
O60 O 0.60244 0.21743 0.15981
O61 O 0.94504 0.56002 0.97848
O62 O 0.39756 0.71743 0.22848
O63 O 0.05496 0.76491 0.97848
O64 O 0.60244 0.60750 0.22848
O65 O 0.65082 0.88569 0.89038
O66 O 0.77677 0.81329 0.64038
O67 O 0.34918 0.43924 0.89038
O68 O 0.22323 0.51164 0.64038
O69 O 0.65082 0.93924 0.49791
O70 O 0.27677 0.51164 0.24791
O71 O 0.34918 0.38569 0.49791
O72 O 0.72323 0.81329 0.24791
O73 O 0.84918 0.43924 0.49791
O74 O 0.72323 0.51164 0.74791
O75 O 0.15082 0.88569 0.49791
O76 O 0.27677 0.81329 0.74791
O77 O 0.34918 0.88569 0.39038
O78 O 0.72323 0.31329 0.64038
O79 O 0.65082 0.43924 0.39038
O80 O 0.27677 0.01164 0.64038
O81 O 0.15082 0.38569 0.39038
O82 O 0.27677 0.31329 0.14038
O83 O 0.84918 0.93924 0.39038
O84 O 0.72323 0.01164 0.14038
O85 O 0.15082 0.43924 0.99791
O86 O 0.77677 0.01164 0.74791
O87 O 0.84918 0.88569 0.99791
O88 O 0.22323 0.31329 0.74791
O89 O 0.34918 0.93924 0.99791
O90 O 0.22323 0.01164 0.24791
O91 O 0.65082 0.38569 0.99791
O92 O 0.77677 0.31329 0.24791
O93 O 0.84918 0.38569 0.89038
O94 O 0.22323 0.81329 0.14038
O95 O 0.15082 0.93924 0.89038
O96 O 0.77677 0.51164 0.14038
Zr1 Zr 0.50000 0.91247 0.94414
Zr2 Zr 0.75000 0.66247 0.69414
Zr3 Zr 0.50000 0.41247 0.94414
Zr4 Zr 0.25000 0.66247 0.69414
Zr5 Zr 0.50000 0.91247 0.44414
Zr6 Zr 0.25000 0.66247 0.19414
Zr7 Zr 0.50000 0.41247 0.44414
Zr8 Zr 0.75000 0.66247 0.19414
Zr9 Zr 0.00000 0.41247 0.44414
Zr10 Zr 0.00000 0.91247 0.44414
Zr11 Zr 0.75000 0.16247 0.69414
Zr12 Zr 0.25000 0.16247 0.69414
Zr13 Zr 0.25000 0.16247 0.19414
Zr14 Zr 0.75000 0.16247 0.19414
Zr15 Zr 0.00000 0.41247 0.94414
Zr16 Zr 0.00000 0.91247 0.94414
La1 La 0.62737 0.91247 0.69414
La2 La 0.75000 0.78984 0.44414
La3 La 0.37263 0.41247 0.69414
La4 La 0.25000 0.53510 0.44414
La5 La 0.87263 0.41247 0.69414
La6 La 0.75000 0.53510 0.94414
La7 La 0.12737 0.91247 0.69414
La8 La 0.25000 0.78984 0.94414
La9 La 0.37263 0.91247 0.19414
La10 La 0.75000 0.28984 0.44414
La11 La 0.62737 0.41247 0.19414
La12 La 0.25000 0.03510 0.44414
La13 La 0.12737 0.41247 0.19414
La14 La 0.25000 0.28984 0.94414
La15 La 0.87263 0.91247 0.19414
La16 La 0.75000 0.03510 0.94414
La17 La 0.50000 0.66247 0.06914
La18 La 0.00000 0.66247 0.81914
La19 La 0.50000 0.16247 0.31914
La20 La 0.00000 0.66247 0.31914
La21 La 0.50000 0.66247 0.56914
La22 La 0.50000 0.16247 0.81914
La23 La 0.00000 0.16247 0.56914
La24 La 0.00000 0.16247 0.06914
#End of li7la3zr2o12
