data_li7la3zr2o12
_cell_length_a                      13.23607
_cell_length_b                      13.23607
_cell_length_c                      12.701706
_cell_angle_alpha                   90.0
_cell_angle_beta                    90.0
_cell_angle_gamma                   90.0
_symmetry_space_group_name_H-M      P1
loop_
_space_group_symop_id
_space_group_symop_operation_xyz
1 x,y,z
loop_
_atom_site_label
_atom_site_type_symbol
_atom_site_fract_x
_atom_site_fract_y
_atom_site_fract_z
X1 X 0.44999 0.51035 0.59220
X2 X 0.44836 0.51326 0.58991
X3 X 0.44690 0.51641 0.58785
X4 X 0.44563 0.51983 0.58614
X5 X 0.44448 0.52338 0.58466
X6 X 0.44367 0.52696 0.58391
X7 X 0.44518 0.52286 0.58328
X8 X 0.44674 0.51932 0.58223
X9 X 0.44841 0.51592 0.58090
X10 X 0.45012 0.51257 0.57948
X11 X 0.45188 0.50930 0.57795
X12 X 0.45368 0.50608 0.57634
X13 X 0.45551 0.50291 0.57466
X14 X 0.45737 0.49978 0.57293
X15 X 0.45927 0.49670 0.57116
X16 X 0.46121 0.49369 0.56930
X17 X 0.46315 0.49069 0.56745
X18 X 0.46512 0.48772 0.56556
X19 X 0.46712 0.48479 0.56363
X20 X 0.46914 0.48190 0.56166
X21 X 0.47118 0.47906 0.55965
X22 X 0.47325 0.47627 0.55759
X23 X 0.47535 0.47353 0.55549
X24 X 0.47747 0.47085 0.55333
X25 X 0.47962 0.46824 0.55110
X26 X 0.48180 0.46572 0.54881
X27 X 0.48406 0.46342 0.54634
X28 X 0.48631 0.46112 0.54386
X29 X 0.48860 0.45896 0.54129
X30 X 0.49092 0.45698 0.53860
X31 X 0.49327 0.45516 0.53581
X32 X 0.49565 0.45369 0.53284
X33 X 0.49805 0.45253 0.52974
X34 X 0.50045 0.45157 0.52656
X35 X 0.50282 0.45123 0.52322
X36 X 0.50519 0.45090 0.51988
X37 X 0.50747 0.45114 0.51647
X38 X 0.50971 0.45159 0.51305
X39 X 0.51196 0.45204 0.50964
X40 X 0.51414 0.45276 0.50623
X41 X 0.51627 0.45363 0.50282
X42 X 0.51836 0.45462 0.49942
X43 X 0.52042 0.45572 0.49604
X44 X 0.52244 0.45690 0.49266
X45 X 0.52443 0.45817 0.48930
X46 X 0.52638 0.45950 0.48594
X47 X 0.52830 0.46089 0.48258
X48 X 0.53018 0.46233 0.47923
X49 X 0.53203 0.46381 0.47587
X50 X 0.53385 0.46533 0.47252
X51 X 0.53566 0.46686 0.46916
X52 X 0.53740 0.46844 0.46579
X53 X 0.53911 0.47004 0.46241
X54 X 0.54077 0.47165 0.45901
X55 X 0.54238 0.47327 0.45559
X56 X 0.54395 0.47486 0.45214
X57 X 0.54546 0.47643 0.44865
X58 X 0.54692 0.47794 0.44510
X59 X 0.54833 0.47935 0.44149
X60 X 0.54971 0.48074 0.43786
X61 X 0.55097 0.48179 0.43406
X62 X 0.55218 0.48264 0.43019
X63 X 0.55330 0.48317 0.42623
X64 X 0.55434 0.48324 0.42202
X65 X 0.55488 0.48346 0.41627
X66 X 0.55439 0.48418 0.41220
X67 X 0.55360 0.48508 0.40823
Li1 Li 0.44965 0.50937 0.59043
Li2 Li 0.03160 0.75235 0.34043
Li3 Li 0.28862 0.83430 0.59043
Li4 Li 0.70667 0.59132 0.34043
Li5 Li 0.44965 0.33430 0.47872
Li6 Li 0.53160 0.59132 0.22872
Li7 Li 0.28862 0.00937 0.47872
Li8 Li 0.20667 0.75235 0.22872
Li9 Li 0.78862 0.83430 0.47872
Li10 Li 0.20667 0.59132 0.72872
Li11 Li 0.94965 0.50937 0.47872
Li12 Li 0.53160 0.75235 0.72872
Li13 Li 0.28862 0.50937 0.09043
Li14 Li 0.20667 0.25235 0.34043
Li15 Li 0.44965 0.83430 0.09043
Li16 Li 0.53160 0.09132 0.34043
Li17 Li 0.94965 0.00937 0.09043
Li18 Li 0.53160 0.25235 0.84043
Li19 Li 0.78862 0.33430 0.09043
Li20 Li 0.20667 0.09132 0.84043
Li21 Li 0.94965 0.83430 0.97872
Li22 Li 0.03160 0.09132 0.72872
Li23 Li 0.78862 0.50937 0.97872
Li24 Li 0.70667 0.25235 0.72872
Li25 Li 0.28862 0.33430 0.97872
Li26 Li 0.70667 0.09132 0.22872
Li27 Li 0.44965 0.00937 0.97872
Li28 Li 0.03160 0.25235 0.22872
Li29 Li 0.78862 0.00937 0.59043
Li30 Li 0.70667 0.75235 0.84043
Li31 Li 0.94965 0.33430 0.59043
Li32 Li 0.03160 0.59132 0.84043
Li33 Li 0.55035 0.85305 0.90957
Li34 Li 0.68793 0.85305 0.65957
Li35 Li 0.18793 0.49063 0.90957
Li36 Li 0.05035 0.49063 0.65957
Li37 Li 0.55035 0.99063 0.15957
Li38 Li 0.18793 0.35305 0.15957
Li39 Li 0.68793 0.49063 0.15957
Li40 Li 0.55035 0.49063 0.40957
Li41 Li 0.05035 0.85305 0.15957
Li42 Li 0.18793 0.85305 0.40957
Li43 Li 0.55035 0.35305 0.65957
Li44 Li 0.18793 0.99063 0.65957
Li45 Li 0.05035 0.35305 0.40957
Li46 Li 0.68793 0.99063 0.40957
Li47 Li 0.05035 0.99063 0.90957
Li48 Li 0.68793 0.35305 0.90957
Li49 Li 0.36914 0.67184 0.65957
Li50 Li 0.86914 0.67184 0.40957
Li51 Li 0.36914 0.17184 0.40957
Li52 Li 0.36914 0.67184 0.15957
Li53 Li 0.86914 0.17184 0.15957
Li54 Li 0.36914 0.17184 0.90957
Li55 Li 0.86914 0.67184 0.90957
Li56 Li 0.86914 0.17184 0.65957
O1 O 0.40375 0.86636 0.93828
O2 O 0.67462 0.70645 0.68828
O3 O 0.33452 0.47732 0.93828
O4 O 0.06365 0.63722 0.68828
O5 O 0.40375 0.97732 0.13087
O6 O 0.17462 0.63722 0.88087
O7 O 0.33452 0.36636 0.13087
O8 O 0.56365 0.70645 0.88087
O9 O 0.83452 0.47732 0.13087
O10 O 0.56365 0.63722 0.38087
O11 O 0.90375 0.86636 0.13087
O12 O 0.17462 0.70645 0.38087
O13 O 0.33452 0.86636 0.43828
O14 O 0.56365 0.20645 0.68828
O15 O 0.40375 0.47732 0.43828
O16 O 0.17462 0.13722 0.68828
O17 O 0.90375 0.36636 0.43828
O18 O 0.17462 0.20645 0.18828
O19 O 0.83452 0.97732 0.43828
O20 O 0.56365 0.13722 0.18828
O21 O 0.90375 0.47732 0.63087
O22 O 0.67462 0.13722 0.38087
O23 O 0.83452 0.86636 0.63087
O24 O 0.06365 0.20645 0.38087
O25 O 0.33452 0.97732 0.63087
O26 O 0.06365 0.13722 0.88087
O27 O 0.40375 0.36636 0.63087
O28 O 0.67462 0.20645 0.88087
O29 O 0.83452 0.36636 0.93828
O30 O 0.06365 0.70645 0.18828
O31 O 0.90375 0.97732 0.93828
O32 O 0.67462 0.63722 0.18828
O33 O 0.42410 0.06940 0.81890
O34 O 0.47158 0.72680 0.56890
O35 O 0.31417 0.27428 0.81890
O36 O 0.26669 0.61688 0.56890
O37 O 0.42410 0.77428 0.25024
O38 O 0.97158 0.61688 0.00024
O39 O 0.31417 0.56940 0.25024
O40 O 0.76669 0.72680 0.00024
O41 O 0.81417 0.27428 0.25024
O42 O 0.76669 0.61688 0.50024
O43 O 0.92410 0.06940 0.25024
O44 O 0.97158 0.72680 0.50024
O45 O 0.31417 0.06940 0.31890
O46 O 0.76669 0.22680 0.56890
O47 O 0.42410 0.27428 0.31890
O48 O 0.97158 0.11688 0.56890
O49 O 0.92410 0.56940 0.31890
O50 O 0.97158 0.22680 0.06890
O51 O 0.81417 0.77428 0.31890
O52 O 0.76669 0.11688 0.06890
O53 O 0.92410 0.27428 0.75024
O54 O 0.47158 0.11688 0.50024
O55 O 0.81417 0.06940 0.75024
O56 O 0.26669 0.22680 0.50024
O57 O 0.31417 0.77428 0.75024
O58 O 0.26669 0.11688 0.00024
O59 O 0.42410 0.56940 0.75024
O60 O 0.47158 0.22680 0.00024
O61 O 0.81417 0.56940 0.81890
O62 O 0.26669 0.72680 0.06890
O63 O 0.92410 0.77428 0.81890
O64 O 0.47158 0.61688 0.06890
O65 O 0.51996 0.89507 0.73081
O66 O 0.64591 0.82266 0.48081
O67 O 0.21831 0.44861 0.73081
O68 O 0.09236 0.52102 0.48081
O69 O 0.51996 0.94861 0.33834
O70 O 0.14591 0.52102 0.08834
O71 O 0.21831 0.39507 0.33834
O72 O 0.59236 0.82266 0.08834
O73 O 0.71831 0.44861 0.33834
O74 O 0.59236 0.52102 0.58834
O75 O 0.01996 0.89507 0.33834
O76 O 0.14591 0.82266 0.58834
O77 O 0.21831 0.89507 0.23081
O78 O 0.59236 0.32266 0.48081
O79 O 0.51996 0.44861 0.23081
O80 O 0.14591 0.02102 0.48081
O81 O 0.01996 0.39507 0.23081
O82 O 0.14591 0.32266 0.98081
O83 O 0.71831 0.94861 0.23081
O84 O 0.59236 0.02102 0.98081
O85 O 0.01996 0.44861 0.83834
O86 O 0.64591 0.02102 0.58834
O87 O 0.71831 0.89507 0.83834
O88 O 0.09236 0.32266 0.58834
O89 O 0.21831 0.94861 0.83834
O90 O 0.09236 0.02102 0.08834
O91 O 0.51996 0.39507 0.83834
O92 O 0.64591 0.32266 0.08834
O93 O 0.71831 0.39507 0.73081
O94 O 0.09236 0.82266 0.98081
O95 O 0.01996 0.94861 0.73081
O96 O 0.64591 0.52102 0.98081
Zr1 Zr 0.36914 0.92184 0.78457
Zr2 Zr 0.61914 0.67184 0.53457
Zr3 Zr 0.36914 0.42184 0.78457
Zr4 Zr 0.11914 0.67184 0.53457
Zr5 Zr 0.36914 0.92184 0.28457
Zr6 Zr 0.11914 0.67184 0.03457
Zr7 Zr 0.36914 0.42184 0.28457
Zr8 Zr 0.61914 0.67184 0.03457
Zr9 Zr 0.86914 0.42184 0.28457
Zr10 Zr 0.86914 0.92184 0.28457
Zr11 Zr 0.61914 0.17184 0.53457
Zr12 Zr 0.11914 0.17184 0.53457
Zr13 Zr 0.11914 0.17184 0.03457
Zr14 Zr 0.61914 0.17184 0.03457
Zr15 Zr 0.86914 0.42184 0.78457
Zr16 Zr 0.86914 0.92184 0.78457
La1 La 0.49651 0.92184 0.53457
La2 La 0.61914 0.79921 0.28457
La3 La 0.24177 0.42184 0.53457
La4 La 0.11914 0.54447 0.28457
La5 La 0.74177 0.42184 0.53457
La6 La 0.61914 0.54447 0.78457
La7 La 0.99651 0.92184 0.53457
La8 La 0.11914 0.79921 0.78457
La9 La 0.24177 0.92184 0.03457
La10 La 0.61914 0.29921 0.28457
La11 La 0.49651 0.42184 0.03457
La12 La 0.11914 0.04447 0.28457
La13 La 0.99651 0.42184 0.03457
La14 La 0.11914 0.29921 0.78457
La15 La 0.74177 0.92184 0.03457
La16 La 0.61914 0.04447 0.78457
La17 La 0.36914 0.67184 0.90957
La18 La 0.86914 0.67184 0.65957
La19 La 0.36914 0.17184 0.15957
La20 La 0.86914 0.67184 0.15957
La21 La 0.36914 0.67184 0.40957
La22 La 0.36914 0.17184 0.65957
La23 La 0.86914 0.17184 0.40957
La24 La 0.86914 0.17184 0.90957
#End of li7la3zr2o12
