data_li7la3zr2o12
_cell_length_a                      13.23607
_cell_length_b                      13.23607
_cell_length_c                      12.701706
_cell_angle_alpha                   90.0
_cell_angle_beta                    90.0
_cell_angle_gamma                   90.0
_symmetry_space_group_name_H-M      P1
loop_
_space_group_symop_id
_space_group_symop_operation_xyz
1 x,y,z
loop_
_atom_site_label
_atom_site_type_symbol
_atom_site_fract_x
_atom_site_fract_y
_atom_site_fract_z
X1 X 0.49674 0.58916 0.55794
X2 X 0.49487 0.59194 0.55568
X3 X 0.49311 0.59515 0.55401
X4 X 0.49122 0.59988 0.55323
X5 X 0.49263 0.59613 0.55280
X6 X 0.49419 0.59253 0.55195
X7 X 0.49582 0.58904 0.55085
X8 X 0.49753 0.58568 0.54947
X9 X 0.49925 0.58232 0.54809
X10 X 0.50099 0.57902 0.54661
X11 X 0.50276 0.57576 0.54504
X12 X 0.50456 0.57254 0.54342
X13 X 0.50637 0.56936 0.54176
X14 X 0.50820 0.56620 0.54006
X15 X 0.51004 0.56307 0.53833
X16 X 0.51190 0.55995 0.53657
X17 X 0.51376 0.55684 0.53480
X18 X 0.51562 0.55375 0.53301
X19 X 0.51748 0.55067 0.53119
X20 X 0.51935 0.54760 0.52938
X21 X 0.52120 0.54452 0.52755
X22 X 0.52306 0.54145 0.52571
X23 X 0.52490 0.53838 0.52386
X24 X 0.52672 0.53530 0.52200
X25 X 0.52853 0.53222 0.52012
X26 X 0.53032 0.52914 0.51824
X27 X 0.53209 0.52605 0.51635
X28 X 0.53376 0.52292 0.51442
X29 X 0.53543 0.51980 0.51249
X30 X 0.53696 0.51662 0.51051
X31 X 0.53841 0.51343 0.50852
X32 X 0.53970 0.51019 0.50648
X33 X 0.54081 0.50690 0.50441
X34 X 0.54161 0.50356 0.50228
X35 X 0.54193 0.50000 0.50000
X36 X 0.54161 0.49644 0.49772
X37 X 0.54081 0.49310 0.49559
X38 X 0.53970 0.48981 0.49352
X39 X 0.53841 0.48657 0.49148
X40 X 0.53696 0.48338 0.48949
X41 X 0.53543 0.48020 0.48751
X42 X 0.53376 0.47708 0.48558
X43 X 0.53209 0.47395 0.48365
X44 X 0.53032 0.47086 0.48176
X45 X 0.52853 0.46778 0.47988
X46 X 0.52672 0.46470 0.47800
X47 X 0.52490 0.46162 0.47614
X48 X 0.52306 0.45855 0.47429
X49 X 0.52120 0.45548 0.47245
X50 X 0.51935 0.45240 0.47062
X51 X 0.51748 0.44933 0.46881
X52 X 0.51562 0.44625 0.46699
X53 X 0.51376 0.44316 0.46520
X54 X 0.51190 0.44005 0.46343
X55 X 0.51004 0.43693 0.46167
X56 X 0.50820 0.43380 0.45994
X57 X 0.50637 0.43064 0.45824
X58 X 0.50456 0.42746 0.45658
X59 X 0.50276 0.42424 0.45496
X60 X 0.50099 0.42098 0.45339
X61 X 0.49925 0.41768 0.45191
X62 X 0.49753 0.41432 0.45053
X63 X 0.49582 0.41096 0.44915
X64 X 0.49419 0.40747 0.44805
X65 X 0.49263 0.40387 0.44720
X66 X 0.49122 0.40012 0.44677
X67 X 0.49311 0.40485 0.44599
X68 X 0.49487 0.40806 0.44432
X69 X 0.49674 0.41084 0.44206
Li1 Li 0.50000 0.58753 0.55586
Li2 Li 0.08195 0.83052 0.30586
Li3 Li 0.33897 0.91247 0.55586
Li4 Li 0.75702 0.66948 0.30586
Li5 Li 0.50000 0.41247 0.44414
Li6 Li 0.58195 0.66948 0.19414
Li7 Li 0.33897 0.08753 0.44414
Li8 Li 0.25702 0.83052 0.19414
Li9 Li 0.83897 0.91247 0.44414
Li10 Li 0.25702 0.66948 0.69414
Li11 Li 0.00000 0.58753 0.44414
Li12 Li 0.58195 0.83052 0.69414
Li13 Li 0.33897 0.58753 0.05586
Li14 Li 0.25702 0.33052 0.30586
Li15 Li 0.50000 0.91247 0.05586
Li16 Li 0.58195 0.16948 0.30586
Li17 Li 0.00000 0.08753 0.05586
Li18 Li 0.58195 0.33052 0.80586
Li19 Li 0.83897 0.41247 0.05586
Li20 Li 0.25702 0.16948 0.80586
Li21 Li 0.00000 0.91247 0.94414
Li22 Li 0.08195 0.16948 0.69414
Li23 Li 0.83897 0.58753 0.94414
Li24 Li 0.75702 0.33052 0.69414
Li25 Li 0.33897 0.41247 0.94414
Li26 Li 0.75702 0.16948 0.19414
Li27 Li 0.50000 0.08753 0.94414
Li28 Li 0.08195 0.33052 0.19414
Li29 Li 0.83897 0.08753 0.55586
Li30 Li 0.75702 0.83052 0.80586
Li31 Li 0.00000 0.41247 0.55586
Li32 Li 0.08195 0.66948 0.80586
Li33 Li 0.60070 0.93121 0.87500
Li34 Li 0.73827 0.93121 0.62500
Li35 Li 0.23827 0.56879 0.87500
Li36 Li 0.10070 0.56879 0.62500
Li37 Li 0.60070 0.06879 0.12500
Li38 Li 0.23827 0.43121 0.12500
Li39 Li 0.73827 0.56879 0.12500
Li40 Li 0.60070 0.56879 0.37500
Li41 Li 0.10070 0.93121 0.12500
Li42 Li 0.23827 0.93121 0.37500
Li43 Li 0.60070 0.43121 0.62500
Li44 Li 0.23827 0.06879 0.62500
Li45 Li 0.10070 0.43121 0.37500
Li46 Li 0.73827 0.06879 0.37500
Li47 Li 0.10070 0.06879 0.87500
Li48 Li 0.73827 0.43121 0.87500
Li49 Li 0.41948 0.75000 0.62500
Li50 Li 0.91948 0.75000 0.37500
Li51 Li 0.41948 0.25000 0.37500
Li52 Li 0.41948 0.75000 0.12500
Li53 Li 0.91948 0.25000 0.12500
Li54 Li 0.41948 0.25000 0.87500
Li55 Li 0.91948 0.75000 0.87500
Li56 Li 0.91948 0.25000 0.62500
O1 O 0.45410 0.94452 0.90370
O2 O 0.72497 0.78462 0.65370
O3 O 0.38487 0.55548 0.90370
O4 O 0.11400 0.71538 0.65370
O5 O 0.45410 0.05548 0.09630
O6 O 0.22497 0.71538 0.84630
O7 O 0.38487 0.44452 0.09630
O8 O 0.61400 0.78462 0.84630
O9 O 0.88487 0.55548 0.09630
O10 O 0.61400 0.71538 0.34630
O11 O 0.95410 0.94452 0.09630
O12 O 0.22497 0.78462 0.34630
O13 O 0.38487 0.94452 0.40370
O14 O 0.61400 0.28462 0.65370
O15 O 0.45410 0.55548 0.40370
O16 O 0.22497 0.21538 0.65370
O17 O 0.95410 0.44452 0.40370
O18 O 0.22497 0.28462 0.15370
O19 O 0.88487 0.05548 0.40370
O20 O 0.61400 0.21538 0.15370
O21 O 0.95410 0.55548 0.59630
O22 O 0.72497 0.21538 0.34630
O23 O 0.88487 0.94452 0.59630
O24 O 0.11400 0.28462 0.34630
O25 O 0.38487 0.05548 0.59630
O26 O 0.11400 0.21538 0.84630
O27 O 0.45410 0.44452 0.59630
O28 O 0.72497 0.28462 0.84630
O29 O 0.88487 0.44452 0.90370
O30 O 0.11400 0.78462 0.15370
O31 O 0.95410 0.05548 0.90370
O32 O 0.72497 0.71538 0.15370
O33 O 0.47445 0.14756 0.78433
O34 O 0.52193 0.80496 0.53433
O35 O 0.36452 0.35244 0.78433
O36 O 0.31704 0.69504 0.53433
O37 O 0.47445 0.85244 0.21567
O38 O 0.02193 0.69504 0.96567
O39 O 0.36452 0.64756 0.21567
O40 O 0.81704 0.80496 0.96567
O41 O 0.86452 0.35244 0.21567
O42 O 0.81704 0.69504 0.46567
O43 O 0.97445 0.14756 0.21567
O44 O 0.02193 0.80496 0.46567
O45 O 0.36452 0.14756 0.28433
O46 O 0.81704 0.30496 0.53433
O47 O 0.47445 0.35244 0.28433
O48 O 0.02193 0.19504 0.53433
O49 O 0.97445 0.64756 0.28433
O50 O 0.02193 0.30496 0.03433
O51 O 0.86452 0.85244 0.28433
O52 O 0.81704 0.19504 0.03433
O53 O 0.97445 0.35244 0.71567
O54 O 0.52193 0.19504 0.46567
O55 O 0.86452 0.14756 0.71567
O56 O 0.31704 0.30496 0.46567
O57 O 0.36452 0.85244 0.71567
O58 O 0.31704 0.19504 0.96567
O59 O 0.47445 0.64756 0.71567
O60 O 0.52193 0.30496 0.96567
O61 O 0.86452 0.64756 0.78433
O62 O 0.31704 0.80496 0.03433
O63 O 0.97445 0.85244 0.78433
O64 O 0.52193 0.69504 0.03433
O65 O 0.57031 0.97323 0.69624
O66 O 0.69626 0.90082 0.44624
O67 O 0.26866 0.52677 0.69624
O68 O 0.14271 0.59918 0.44624
O69 O 0.57031 0.02677 0.30376
O70 O 0.19626 0.59918 0.05376
O71 O 0.26866 0.47323 0.30376
O72 O 0.64271 0.90082 0.05376
O73 O 0.76866 0.52677 0.30376
O74 O 0.64271 0.59918 0.55376
O75 O 0.07031 0.97323 0.30376
O76 O 0.19626 0.90082 0.55376
O77 O 0.26866 0.97323 0.19624
O78 O 0.64271 0.40082 0.44624
O79 O 0.57031 0.52677 0.19624
O80 O 0.19626 0.09918 0.44624
O81 O 0.07031 0.47323 0.19624
O82 O 0.19626 0.40082 0.94624
O83 O 0.76866 0.02677 0.19624
O84 O 0.64271 0.09918 0.94624
O85 O 0.07031 0.52677 0.80376
O86 O 0.69626 0.09918 0.55376
O87 O 0.76866 0.97323 0.80376
O88 O 0.14271 0.40082 0.55376
O89 O 0.26866 0.02677 0.80376
O90 O 0.14271 0.09918 0.05376
O91 O 0.57031 0.47323 0.80376
O92 O 0.69626 0.40082 0.05376
O93 O 0.76866 0.47323 0.69624
O94 O 0.14271 0.90082 0.94624
O95 O 0.07031 0.02677 0.69624
O96 O 0.69626 0.59918 0.94624
Zr1 Zr 0.41948 0.00000 0.75000
Zr2 Zr 0.66948 0.75000 0.50000
Zr3 Zr 0.41948 0.50000 0.75000
Zr4 Zr 0.16948 0.75000 0.50000
Zr5 Zr 0.41948 0.00000 0.25000
Zr6 Zr 0.16948 0.75000 0.00000
Zr7 Zr 0.41948 0.50000 0.25000
Zr8 Zr 0.66948 0.75000 0.00000
Zr9 Zr 0.91948 0.50000 0.25000
Zr10 Zr 0.91948 0.00000 0.25000
Zr11 Zr 0.66948 0.25000 0.50000
Zr12 Zr 0.16948 0.25000 0.50000
Zr13 Zr 0.16948 0.25000 0.00000
Zr14 Zr 0.66948 0.25000 0.00000
Zr15 Zr 0.91948 0.50000 0.75000
Zr16 Zr 0.91948 0.00000 0.75000
La1 La 0.54685 0.00000 0.50000
La2 La 0.66948 0.87737 0.25000
La3 La 0.29211 0.50000 0.50000
La4 La 0.16948 0.62263 0.25000
La5 La 0.79211 0.50000 0.50000
La6 La 0.66948 0.62263 0.75000
La7 La 0.04685 0.00000 0.50000
La8 La 0.16948 0.87737 0.75000
La9 La 0.29211 0.00000 0.00000
La10 La 0.66948 0.37737 0.25000
La11 La 0.54685 0.50000 0.00000
La12 La 0.16948 0.12263 0.25000
La13 La 0.04685 0.50000 0.00000
La14 La 0.16948 0.37737 0.75000
La15 La 0.79211 0.00000 0.00000
La16 La 0.66948 0.12263 0.75000
La17 La 0.41948 0.75000 0.87500
La18 La 0.91948 0.75000 0.62500
La19 La 0.41948 0.25000 0.12500
La20 La 0.91948 0.75000 0.12500
La21 La 0.41948 0.75000 0.37500
La22 La 0.41948 0.25000 0.62500
La23 La 0.91948 0.25000 0.37500
La24 La 0.91948 0.25000 0.87500
#End of li7la3zr2o12
