data_li7la3zr2o12
_cell_length_a                      13.23607
_cell_length_b                      13.23607
_cell_length_c                      12.701706
_cell_angle_alpha                   90.0
_cell_angle_beta                    90.0
_cell_angle_gamma                   90.0
_symmetry_space_group_name_H-M      None
loop_
_space_group_symop_id
_space_group_symop_operation_xyz
1 x,y,z
2 1/2-y,x,3/4+z
3 -x,-y,z
4 1/2+y,-x,3/4+z
5 x,1/2-y,3/4-z
6 -y,-x,1/2-z
7 -x,1/2+y,3/4-z
8 y,x,1/2-z
9 1/2-x,-y,3/4-z
10 y,-x,-z
11 1/2+x,y,3/4-z
12 -y,x,-z
13 -x,y,1/2+z
14 y,1/2+x,3/4+z
15 x,-y,1/2+z
16 -y,1/2-x,3/4+z
17 1/2+x,1/2+y,1/2+z
18 -y,1/2+x,1/4+z
19 1/2-x,1/2-y,1/2+z
20 y,1/2-x,1/4+z
21 1/2+x,-y,1/4-z
22 1/2-y,1/2-x,-z
23 1/2-x,y,1/4-z
24 1/2+y,1/2+x,-z
25 -x,1/2-y,1/4-z
26 1/2+y,1/2-x,1/2-z
27 x,1/2+y,1/4-z
28 1/2-y,1/2+x,1/2-z
29 1/2-x,1/2+y,z
30 1/2+y,x,1/4+z
31 1/2+x,1/2-y,z
32 1/2-y,-x,1/4+z
loop_
_atom_site_label
_atom_site_type_symbol
_atom_site_fract_x
_atom_site_fract_y
_atom_site_fract_z
X1 X 0.07886 0.83849 0.92656
X2 X 0.07713 0.84185 0.92791
X3 X 0.07542 0.84526 0.92917
X4 X 0.07374 0.84871 0.93031
X5 X 0.07210 0.85222 0.93134
X6 X 0.07049 0.85578 0.93222
X7 X 0.06887 0.85934 0.93310
X8 X 0.06733 0.86298 0.93371
X9 X 0.06582 0.86665 0.93419
X10 X 0.06434 0.87035 0.93456
X11 X 0.06289 0.87406 0.93488
X12 X 0.06145 0.87778 0.93521
X13 X 0.06002 0.88150 0.93560
X14 X 0.05885 0.88444 0.93603
X15 X 0.05805 0.88626 0.93637
X16 X 0.05642 0.88984 0.93716
X17 X 0.05476 0.89337 0.93805
X18 X 0.05308 0.89687 0.93906
X19 X 0.05140 0.90032 0.94022
X20 X 0.04972 0.90375 0.94145
X21 X 0.04804 0.90714 0.94278
X22 X 0.04637 0.91051 0.94420
X23 X 0.04470 0.91385 0.94569
X24 X 0.04305 0.91716 0.94726
X25 X 0.04139 0.92045 0.94890
X26 X 0.03975 0.92370 0.95061
X27 X 0.03811 0.92693 0.95237
X28 X 0.03648 0.93014 0.95418
X29 X 0.03485 0.93332 0.95605
X30 X 0.03322 0.93648 0.95796
X31 X 0.03160 0.93962 0.95991
X32 X 0.02999 0.94274 0.96190
X33 X 0.02838 0.94583 0.96394
X34 X 0.02677 0.94892 0.96598
X35 X 0.02516 0.95200 0.96805
X36 X 0.02356 0.95506 0.97014
X37 X 0.02196 0.95811 0.97226
X38 X 0.02036 0.96115 0.97439
X39 X 0.01876 0.96418 0.97654
X40 X 0.01717 0.96721 0.97870
X41 X 0.01557 0.97022 0.98087
X42 X 0.01398 0.97323 0.98305
X43 X 0.01238 0.97624 0.98523
X44 X 0.01079 0.97926 0.98741
X45 X 0.00919 0.98227 0.98958
X46 X 0.00759 0.98530 0.99173
X47 X 0.00598 0.98833 0.99386
X48 X 0.00425 0.99160 0.99607
X49 X 0.00192 0.99605 0.99721
X50 X 0.00000 0.99954 0.99648
X51 X 0.07726 0.83916 0.93294
X52 X 0.07538 0.84194 0.93068
X53 X 0.07363 0.84515 0.92901
X54 X 0.07174 0.84988 0.92823
X55 X 0.07315 0.84613 0.92780
X56 X 0.07471 0.84253 0.92695
X57 X 0.07634 0.83904 0.92585
X58 X 0.07805 0.83568 0.92447
X59 X 0.07976 0.83232 0.92309
X60 X 0.08151 0.82902 0.92161
X61 X 0.08328 0.82576 0.92004
X62 X 0.08508 0.82254 0.91842
X63 X 0.08689 0.81936 0.91676
X64 X 0.08872 0.81620 0.91506
X65 X 0.09056 0.81307 0.91333
X66 X 0.09241 0.80995 0.91157
X67 X 0.09427 0.80684 0.90980
X68 X 0.09614 0.80375 0.90801
X69 X 0.09800 0.80067 0.90619
X70 X 0.09986 0.79760 0.90438
X71 X 0.10172 0.79452 0.90255
X72 X 0.10357 0.79145 0.90071
X73 X 0.10541 0.78838 0.89886
X74 X 0.10724 0.78530 0.89700
X75 X 0.10905 0.78222 0.89512
X76 X 0.11083 0.77914 0.89324
X77 X 0.11260 0.77605 0.89135
X78 X 0.11427 0.77292 0.88942
X79 X 0.11595 0.76980 0.88749
X80 X 0.11747 0.76662 0.88551
X81 X 0.11893 0.76343 0.88352
X82 X 0.12021 0.76019 0.88148
X83 X 0.12132 0.75690 0.87941
X84 X 0.12213 0.75356 0.87728
X85 X 0.12245 0.75000 0.87500
Li1 Li 0.08052 0.83753 0.93086
Li2 Li 0.18121 0.18121 0.25000
Li3 Li 0.00000 0.00000 0.00000
O1 O 0.03462 0.19452 0.27870
O2 O 0.05496 0.39756 0.15933
O3 O 0.15082 0.22323 0.07124
Zr1 Zr 0.00000 0.25000 0.12500
La1 La 0.12737 0.25000 0.87500
La2 La 0.00000 0.00000 0.25000
#End of li7la3zr2o12
