data_li7la3zr2o12
_cell_length_a                      13.23607
_cell_length_b                      13.23607
_cell_length_c                      12.701706
_cell_angle_alpha                   90.0
_cell_angle_beta                    90.0
_cell_angle_gamma                   90.0
_symmetry_space_group_name_H-M      P1
loop_
_space_group_symop_id
_space_group_symop_operation_xyz
1 x,y,z
loop_
_atom_site_label
_atom_site_type_symbol
_atom_site_fract_x
_atom_site_fract_y
_atom_site_fract_z
X1 X 0.43826 0.50644 0.63105
X2 X 0.43958 0.50786 0.62741
X3 X 0.44054 0.50853 0.62277
X4 X 0.44153 0.50795 0.61777
X5 X 0.44278 0.50722 0.61389
X6 X 0.44427 0.50630 0.61015
X7 X 0.44585 0.50531 0.60646
X8 X 0.44751 0.50422 0.60284
X9 X 0.44923 0.50304 0.59929
X10 X 0.45099 0.50179 0.59578
X11 X 0.45276 0.50046 0.59231
X12 X 0.45453 0.49908 0.58887
X13 X 0.45630 0.49760 0.58546
X14 X 0.45807 0.49613 0.58206
X15 X 0.45984 0.49461 0.57868
X16 X 0.46160 0.49305 0.57530
X17 X 0.46335 0.49146 0.57194
X18 X 0.46510 0.48985 0.56860
X19 X 0.46683 0.48821 0.56525
X20 X 0.46856 0.48656 0.56192
X21 X 0.47029 0.48489 0.55858
X22 X 0.47201 0.48321 0.55525
X23 X 0.47372 0.48153 0.55192
X24 X 0.47543 0.47985 0.54859
X25 X 0.47715 0.47818 0.54525
X26 X 0.47886 0.47652 0.54191
X27 X 0.48057 0.47487 0.53856
X28 X 0.48228 0.47325 0.53519
X29 X 0.48400 0.47166 0.53181
X30 X 0.48573 0.47012 0.52842
X31 X 0.48746 0.46864 0.52500
X32 X 0.48921 0.46723 0.52155
X33 X 0.49096 0.46591 0.51807
X34 X 0.49274 0.46477 0.51453
X35 X 0.49453 0.46376 0.51096
X36 X 0.49634 0.46293 0.50734
X37 X 0.49816 0.46226 0.50370
X38 X 0.50000 0.46226 0.50000
X39 X 0.50184 0.46226 0.49630
X40 X 0.50366 0.46293 0.49266
X41 X 0.50547 0.46376 0.48904
X42 X 0.50726 0.46477 0.48547
X43 X 0.50904 0.46591 0.48193
X44 X 0.51079 0.46723 0.47845
X45 X 0.51254 0.46864 0.47500
X46 X 0.51427 0.47012 0.47158
X47 X 0.51600 0.47166 0.46819
X48 X 0.51772 0.47325 0.46481
X49 X 0.51943 0.47487 0.46144
X50 X 0.52114 0.47652 0.45809
X51 X 0.52285 0.47818 0.45475
X52 X 0.52457 0.47985 0.45141
X53 X 0.52628 0.48153 0.44808
X54 X 0.52799 0.48321 0.44475
X55 X 0.52971 0.48489 0.44142
X56 X 0.53144 0.48656 0.43808
X57 X 0.53317 0.48821 0.43475
X58 X 0.53490 0.48985 0.43140
X59 X 0.53665 0.49146 0.42806
X60 X 0.53840 0.49305 0.42470
X61 X 0.54016 0.49461 0.42132
X62 X 0.54193 0.49613 0.41794
X63 X 0.54370 0.49760 0.41454
X64 X 0.54547 0.49908 0.41113
X65 X 0.54724 0.50046 0.40769
X66 X 0.54901 0.50179 0.40422
X67 X 0.55077 0.50304 0.40071
X68 X 0.55249 0.50422 0.39716
X69 X 0.55415 0.50531 0.39354
X70 X 0.55573 0.50630 0.38985
X71 X 0.55722 0.50722 0.38611
X72 X 0.55847 0.50795 0.38223
X73 X 0.55946 0.50853 0.37723
X74 X 0.56045 0.50781 0.37260
X75 X 0.56171 0.50649 0.36889
Li1 Li 0.33052 0.15632 0.30586
Li2 Li 0.91247 0.39930 0.05586
Li3 Li 0.16948 0.48125 0.30586
Li4 Li 0.58753 0.23827 0.05586
Li5 Li 0.33052 0.98125 0.19414
Li6 Li 0.41247 0.23827 0.94414
Li7 Li 0.16948 0.65632 0.19414
Li8 Li 0.08753 0.39930 0.94414
Li9 Li 0.66948 0.48125 0.19414
Li10 Li 0.08753 0.23827 0.44414
Li11 Li 0.83052 0.15632 0.19414
Li12 Li 0.41247 0.39930 0.44414
Li13 Li 0.16948 0.15632 0.80586
Li14 Li 0.08753 0.89930 0.05586
Li15 Li 0.33052 0.48125 0.80586
Li16 Li 0.41247 0.73827 0.05586
Li17 Li 0.83052 0.65632 0.80586
Li18 Li 0.41247 0.89930 0.55586
Li19 Li 0.66948 0.98125 0.80586
Li20 Li 0.08753 0.73827 0.55586
Li21 Li 0.83052 0.48125 0.69414
Li22 Li 0.91247 0.73827 0.44414
Li23 Li 0.66948 0.15632 0.69414
Li24 Li 0.58753 0.89930 0.44414
Li25 Li 0.16948 0.98125 0.69414
Li26 Li 0.58753 0.73827 0.94414
Li27 Li 0.33052 0.65632 0.69414
Li28 Li 0.91247 0.89930 0.94414
Li29 Li 0.66948 0.65632 0.30586
Li30 Li 0.58753 0.39930 0.55586
Li31 Li 0.83052 0.98125 0.30586
Li32 Li 0.91247 0.23827 0.55586
Li33 Li 0.43121 0.50000 0.62500
Li34 Li 0.56879 0.50000 0.37500
Li35 Li 0.06879 0.13758 0.62500
Li36 Li 0.93121 0.13758 0.37500
Li37 Li 0.43121 0.63758 0.87500
Li38 Li 0.06879 0.00000 0.87500
Li39 Li 0.56879 0.13758 0.87500
Li40 Li 0.43121 0.13758 0.12500
Li41 Li 0.93121 0.50000 0.87500
Li42 Li 0.06879 0.50000 0.12500
Li43 Li 0.43121 0.00000 0.37500
Li44 Li 0.06879 0.63758 0.37500
Li45 Li 0.93121 0.00000 0.12500
Li46 Li 0.56879 0.63758 0.12500
Li47 Li 0.93121 0.63758 0.62500
Li48 Li 0.56879 0.00000 0.62500
Li49 Li 0.25000 0.31879 0.37500
Li50 Li 0.75000 0.31879 0.12500
Li51 Li 0.25000 0.81879 0.12500
Li52 Li 0.25000 0.31879 0.87500
Li53 Li 0.75000 0.81879 0.87500
Li54 Li 0.25000 0.81879 0.62500
Li55 Li 0.75000 0.31879 0.62500
Li56 Li 0.75000 0.81879 0.37500
O1 O 0.28462 0.51331 0.65370
O2 O 0.55548 0.35340 0.40370
O3 O 0.21538 0.12427 0.65370
O4 O 0.94452 0.28417 0.40370
O5 O 0.28462 0.62427 0.84630
O6 O 0.05548 0.28417 0.59630
O7 O 0.21538 0.01331 0.84630
O8 O 0.44452 0.35340 0.59630
O9 O 0.71538 0.12427 0.84630
O10 O 0.44452 0.28417 0.09630
O11 O 0.78462 0.51331 0.84630
O12 O 0.05548 0.35340 0.09630
O13 O 0.21538 0.51331 0.15370
O14 O 0.44452 0.85340 0.40370
O15 O 0.28462 0.12427 0.15370
O16 O 0.05548 0.78417 0.40370
O17 O 0.78462 0.01331 0.15370
O18 O 0.05548 0.85340 0.90370
O19 O 0.71538 0.62427 0.15370
O20 O 0.44452 0.78417 0.90370
O21 O 0.78462 0.12427 0.34630
O22 O 0.55548 0.78417 0.09630
O23 O 0.71538 0.51331 0.34630
O24 O 0.94452 0.85340 0.09630
O25 O 0.21538 0.62427 0.34630
O26 O 0.94452 0.78417 0.59630
O27 O 0.28462 0.01331 0.34630
O28 O 0.55548 0.85340 0.59630
O29 O 0.71538 0.01331 0.65370
O30 O 0.94452 0.35340 0.90370
O31 O 0.78462 0.62427 0.65370
O32 O 0.55548 0.28417 0.90370
O33 O 0.30496 0.71635 0.53433
O34 O 0.35244 0.37375 0.28433
O35 O 0.19504 0.92123 0.53433
O36 O 0.14756 0.26383 0.28433
O37 O 0.30496 0.42123 0.96567
O38 O 0.85244 0.26383 0.71567
O39 O 0.19504 0.21635 0.96567
O40 O 0.64756 0.37375 0.71567
O41 O 0.69504 0.92123 0.96567
O42 O 0.64756 0.26383 0.21567
O43 O 0.80496 0.71635 0.96567
O44 O 0.85244 0.37375 0.21567
O45 O 0.19504 0.71635 0.03433
O46 O 0.64756 0.87375 0.28433
O47 O 0.30496 0.92123 0.03433
O48 O 0.85244 0.76383 0.28433
O49 O 0.80496 0.21635 0.03433
O50 O 0.85244 0.87375 0.78433
O51 O 0.69504 0.42123 0.03433
O52 O 0.64756 0.76383 0.78433
O53 O 0.80496 0.92123 0.46567
O54 O 0.35244 0.76383 0.21567
O55 O 0.69504 0.71635 0.46567
O56 O 0.14756 0.87375 0.21567
O57 O 0.19504 0.42123 0.46567
O58 O 0.14756 0.76383 0.71567
O59 O 0.30496 0.21635 0.46567
O60 O 0.35244 0.87375 0.71567
O61 O 0.69504 0.21635 0.53433
O62 O 0.14756 0.37375 0.78433
O63 O 0.80496 0.42123 0.53433
O64 O 0.35244 0.26383 0.78433
O65 O 0.40082 0.54202 0.44624
O66 O 0.52677 0.46961 0.19624
O67 O 0.09918 0.09556 0.44624
O68 O 0.97323 0.16797 0.19624
O69 O 0.40082 0.59556 0.05376
O70 O 0.02677 0.16797 0.80376
O71 O 0.09918 0.04202 0.05376
O72 O 0.47323 0.46961 0.80376
O73 O 0.59918 0.09556 0.05376
O74 O 0.47323 0.16797 0.30376
O75 O 0.90082 0.54202 0.05376
O76 O 0.02677 0.46961 0.30376
O77 O 0.09918 0.54202 0.94624
O78 O 0.47323 0.96961 0.19624
O79 O 0.40082 0.09556 0.94624
O80 O 0.02677 0.66797 0.19624
O81 O 0.90082 0.04202 0.94624
O82 O 0.02677 0.96961 0.69624
O83 O 0.59918 0.59556 0.94624
O84 O 0.47323 0.66797 0.69624
O85 O 0.90082 0.09556 0.55376
O86 O 0.52677 0.66797 0.30376
O87 O 0.59918 0.54202 0.55376
O88 O 0.97323 0.96961 0.30376
O89 O 0.09918 0.59556 0.55376
O90 O 0.97323 0.66797 0.80376
O91 O 0.40082 0.04202 0.55376
O92 O 0.52677 0.96961 0.80376
O93 O 0.59918 0.04202 0.44624
O94 O 0.97323 0.46961 0.69624
O95 O 0.90082 0.59556 0.44624
O96 O 0.52677 0.16797 0.69624
Zr1 Zr 0.25000 0.56879 0.50000
Zr2 Zr 0.50000 0.31879 0.25000
Zr3 Zr 0.25000 0.06879 0.50000
Zr4 Zr 0.00000 0.31879 0.25000
Zr5 Zr 0.25000 0.56879 0.00000
Zr6 Zr 0.00000 0.31879 0.75000
Zr7 Zr 0.25000 0.06879 0.00000
Zr8 Zr 0.50000 0.31879 0.75000
Zr9 Zr 0.75000 0.06879 0.00000
Zr10 Zr 0.75000 0.56879 0.00000
Zr11 Zr 0.50000 0.81879 0.25000
Zr12 Zr 0.00000 0.81879 0.25000
Zr13 Zr 0.00000 0.81879 0.75000
Zr14 Zr 0.50000 0.81879 0.75000
Zr15 Zr 0.75000 0.06879 0.50000
Zr16 Zr 0.75000 0.56879 0.50000
La1 La 0.37737 0.56879 0.25000
La2 La 0.50000 0.44616 0.00000
La3 La 0.12263 0.06879 0.25000
La4 La 0.00000 0.19142 0.00000
La5 La 0.62263 0.06879 0.25000
La6 La 0.50000 0.19142 0.50000
La7 La 0.87737 0.56879 0.25000
La8 La 0.00000 0.44616 0.50000
La9 La 0.12263 0.56879 0.75000
La10 La 0.50000 0.94616 0.00000
La11 La 0.37737 0.06879 0.75000
La12 La 0.00000 0.69142 0.00000
La13 La 0.87737 0.06879 0.75000
La14 La 0.00000 0.94616 0.50000
La15 La 0.62263 0.56879 0.75000
La16 La 0.50000 0.69142 0.50000
La17 La 0.25000 0.31879 0.62500
La18 La 0.75000 0.31879 0.37500
La19 La 0.25000 0.81879 0.87500
La20 La 0.75000 0.31879 0.87500
La21 La 0.25000 0.31879 0.12500
La22 La 0.25000 0.81879 0.37500
La23 La 0.75000 0.81879 0.12500
La24 La 0.75000 0.81879 0.62500
#End of li7la3zr2o12
