data_li7la3zr2o12
_cell_length_a                      13.23607
_cell_length_b                      13.23607
_cell_length_c                      12.701706
_cell_angle_alpha                   90.0
_cell_angle_beta                    90.0
_cell_angle_gamma                   90.0
_symmetry_space_group_name_H-M      P1
loop_
_space_group_symop_id
_space_group_symop_operation_xyz
1 x,y,z
loop_
_atom_site_label
_atom_site_type_symbol
_atom_site_fract_x
_atom_site_fract_y
_atom_site_fract_z
X1 X 0.61973 0.45925 0.42649
X2 X 0.61794 0.46260 0.42779
X3 X 0.61618 0.46601 0.42895
X4 X 0.61445 0.46950 0.42990
X5 X 0.61279 0.47309 0.43050
X6 X 0.61119 0.47674 0.43079
X7 X 0.61032 0.47904 0.43068
X8 X 0.60549 0.48066 0.43130
X9 X 0.60158 0.48117 0.43198
X10 X 0.59767 0.48151 0.43278
X11 X 0.59380 0.48169 0.43381
X12 X 0.58993 0.48187 0.43484
X13 X 0.58610 0.48198 0.43600
X14 X 0.58230 0.48205 0.43730
X15 X 0.57854 0.48208 0.43873
X16 X 0.57484 0.48208 0.44030
X17 X 0.57119 0.48207 0.44199
X18 X 0.56759 0.48204 0.44381
X19 X 0.56404 0.48201 0.44573
X20 X 0.56054 0.48199 0.44775
X21 X 0.55710 0.48197 0.44986
X22 X 0.55373 0.48199 0.45210
X23 X 0.55036 0.48201 0.45434
X24 X 0.54703 0.48206 0.45665
X25 X 0.54373 0.48214 0.45901
X26 X 0.54047 0.48225 0.46142
X27 X 0.53724 0.48241 0.46387
X28 X 0.53405 0.48262 0.46636
X29 X 0.53087 0.48289 0.46888
X30 X 0.52773 0.48321 0.47143
X31 X 0.52461 0.48360 0.47400
X32 X 0.52152 0.48406 0.47660
X33 X 0.51848 0.48467 0.47924
X34 X 0.51545 0.48528 0.48187
X35 X 0.51244 0.48598 0.48452
X36 X 0.50946 0.48676 0.48717
X37 X 0.50651 0.48763 0.48984
X38 X 0.50360 0.48859 0.49252
X39 X 0.50073 0.48964 0.49519
X40 X 0.49788 0.49075 0.49787
X41 X 0.49511 0.49207 0.50055
X42 X 0.49234 0.49339 0.50323
X43 X 0.48967 0.49491 0.50588
X44 X 0.48701 0.49647 0.50854
X45 X 0.48439 0.49812 0.51118
X46 X 0.48182 0.49985 0.51381
X47 X 0.47928 0.50166 0.51642
X48 X 0.47677 0.50354 0.51900
X49 X 0.47429 0.50548 0.52157
X50 X 0.47183 0.50747 0.52412
X51 X 0.46939 0.50951 0.52664
X52 X 0.46696 0.51158 0.52914
X53 X 0.46452 0.51369 0.53161
X54 X 0.46208 0.51581 0.53406
X55 X 0.45963 0.51795 0.53648
X56 X 0.45717 0.52009 0.53890
X57 X 0.45468 0.52224 0.54126
X58 X 0.45215 0.52438 0.54359
X59 X 0.44958 0.52651 0.54588
X60 X 0.44696 0.52862 0.54813
X61 X 0.44428 0.53070 0.55034
X62 X 0.44154 0.53275 0.55250
X63 X 0.43873 0.53475 0.55460
X64 X 0.43584 0.53671 0.55664
X65 X 0.43287 0.53861 0.55860
X66 X 0.42981 0.54044 0.56048
X67 X 0.42675 0.54227 0.56236
X68 X 0.42352 0.54397 0.56406
X69 X 0.42016 0.54555 0.56561
X70 X 0.41669 0.54702 0.56699
X71 X 0.41311 0.54837 0.56820
X72 X 0.40938 0.54951 0.56911
X73 X 0.40550 0.55036 0.56962
X74 X 0.40152 0.55076 0.56964
X75 X 0.39952 0.55068 0.56944
X76 X 0.39688 0.54996 0.56933
X77 X 0.39310 0.54867 0.56955
X78 X 0.38943 0.54721 0.57015
X79 X 0.38587 0.54563 0.57110
X80 X 0.38239 0.54399 0.57224
X81 X 0.37899 0.54230 0.57354
Li1 Li 0.62149 0.45902 0.43086
Li2 Li 0.20344 0.70201 0.18086
Li3 Li 0.46046 0.78396 0.43086
Li4 Li 0.87851 0.54097 0.18086
Li5 Li 0.62149 0.28396 0.31914
Li6 Li 0.70344 0.54097 0.06914
Li7 Li 0.46046 0.95902 0.31914
Li8 Li 0.37851 0.70201 0.06914
Li9 Li 0.96046 0.78396 0.31914
Li10 Li 0.37851 0.54097 0.56914
Li11 Li 0.12149 0.45902 0.31914
Li12 Li 0.70344 0.70201 0.56914
Li13 Li 0.46046 0.45902 0.93086
Li14 Li 0.37851 0.20201 0.18086
Li15 Li 0.62149 0.78396 0.93086
Li16 Li 0.70344 0.04097 0.18086
Li17 Li 0.12149 0.95902 0.93086
Li18 Li 0.70344 0.20201 0.68086
Li19 Li 0.96046 0.28396 0.93086
Li20 Li 0.37851 0.04097 0.68086
Li21 Li 0.12149 0.78396 0.81914
Li22 Li 0.20344 0.04097 0.56914
Li23 Li 0.96046 0.45902 0.81914
Li24 Li 0.87851 0.20201 0.56914
Li25 Li 0.46046 0.28396 0.81914
Li26 Li 0.87851 0.04097 0.06914
Li27 Li 0.62149 0.95902 0.81914
Li28 Li 0.20344 0.20201 0.06914
Li29 Li 0.96046 0.95902 0.43086
Li30 Li 0.87851 0.70201 0.68086
Li31 Li 0.12149 0.28396 0.43086
Li32 Li 0.20344 0.54097 0.68086
Li33 Li 0.72219 0.80270 0.75000
Li34 Li 0.85976 0.80270 0.50000
Li35 Li 0.35976 0.44028 0.75000
Li36 Li 0.22219 0.44028 0.50000
Li37 Li 0.72219 0.94028 0.00000
Li38 Li 0.35976 0.30270 0.00000
Li39 Li 0.85976 0.44028 0.00000
Li40 Li 0.72219 0.44028 0.25000
Li41 Li 0.22219 0.80270 0.00000
Li42 Li 0.35976 0.80270 0.25000
Li43 Li 0.72219 0.30270 0.50000
Li44 Li 0.35976 0.94028 0.50000
Li45 Li 0.22219 0.30270 0.25000
Li46 Li 0.85976 0.94028 0.25000
Li47 Li 0.22219 0.94028 0.75000
Li48 Li 0.85976 0.30270 0.75000
Li49 Li 0.54097 0.62149 0.50000
Li50 Li 0.04097 0.62149 0.25000
Li51 Li 0.54097 0.12149 0.25000
Li52 Li 0.54097 0.62149 0.00000
Li53 Li 0.04097 0.12149 0.00000
Li54 Li 0.54097 0.12149 0.75000
Li55 Li 0.04097 0.62149 0.75000
Li56 Li 0.04097 0.12149 0.50000
O1 O 0.57559 0.81601 0.77870
O2 O 0.84646 0.65611 0.52870
O3 O 0.50636 0.42697 0.77870
O4 O 0.23549 0.58687 0.52870
O5 O 0.57559 0.92697 0.97130
O6 O 0.34646 0.58687 0.72130
O7 O 0.50636 0.31601 0.97130
O8 O 0.73549 0.65611 0.72130
O9 O 0.00636 0.42697 0.97130
O10 O 0.73549 0.58687 0.22130
O11 O 0.07559 0.81601 0.97130
O12 O 0.34646 0.65611 0.22130
O13 O 0.50636 0.81601 0.27870
O14 O 0.73549 0.15611 0.52870
O15 O 0.57559 0.42697 0.27870
O16 O 0.34646 0.08687 0.52870
O17 O 0.07559 0.31601 0.27870
O18 O 0.34646 0.15611 0.02870
O19 O 0.00636 0.92697 0.27870
O20 O 0.73549 0.08687 0.02870
O21 O 0.07559 0.42697 0.47130
O22 O 0.84646 0.08687 0.22130
O23 O 0.00636 0.81601 0.47130
O24 O 0.23549 0.15611 0.22130
O25 O 0.50636 0.92697 0.47130
O26 O 0.23549 0.08687 0.72130
O27 O 0.57559 0.31601 0.47130
O28 O 0.84646 0.15611 0.72130
O29 O 0.00636 0.31601 0.77870
O30 O 0.23549 0.65611 0.02870
O31 O 0.07559 0.92697 0.77870
O32 O 0.84646 0.58687 0.02870
O33 O 0.59594 0.01905 0.65933
O34 O 0.64342 0.67645 0.40933
O35 O 0.48601 0.22393 0.65933
O36 O 0.43853 0.56653 0.40933
O37 O 0.59594 0.72393 0.09067
O38 O 0.14342 0.56653 0.84067
O39 O 0.48601 0.51905 0.09067
O40 O 0.93853 0.67645 0.84067
O41 O 0.98601 0.22393 0.09067
O42 O 0.93853 0.56653 0.34067
O43 O 0.09594 0.01905 0.09067
O44 O 0.14342 0.67645 0.34067
O45 O 0.48601 0.01905 0.15933
O46 O 0.93853 0.17645 0.40933
O47 O 0.59594 0.22393 0.15933
O48 O 0.14342 0.06653 0.40933
O49 O 0.09594 0.51905 0.15933
O50 O 0.14342 0.17645 0.90933
O51 O 0.98601 0.72393 0.15933
O52 O 0.93853 0.06653 0.90933
O53 O 0.09594 0.22393 0.59067
O54 O 0.64342 0.06653 0.34067
O55 O 0.98601 0.01905 0.59067
O56 O 0.43853 0.17645 0.34067
O57 O 0.48601 0.72393 0.59067
O58 O 0.43853 0.06653 0.84067
O59 O 0.59594 0.51905 0.59067
O60 O 0.64342 0.17645 0.84067
O61 O 0.98601 0.51905 0.65933
O62 O 0.43853 0.67645 0.90933
O63 O 0.09594 0.72393 0.65933
O64 O 0.64342 0.56653 0.90933
O65 O 0.69180 0.84472 0.57124
O66 O 0.81775 0.77231 0.32124
O67 O 0.39015 0.39826 0.57124
O68 O 0.26420 0.47067 0.32124
O69 O 0.69180 0.89826 0.17876
O70 O 0.31775 0.47067 0.92876
O71 O 0.39015 0.34472 0.17876
O72 O 0.76420 0.77231 0.92876
O73 O 0.89015 0.39826 0.17876
O74 O 0.76420 0.47067 0.42876
O75 O 0.19180 0.84472 0.17876
O76 O 0.31775 0.77231 0.42876
O77 O 0.39015 0.84472 0.07124
O78 O 0.76420 0.27231 0.32124
O79 O 0.69180 0.39826 0.07124
O80 O 0.31775 0.97067 0.32124
O81 O 0.19180 0.34472 0.07124
O82 O 0.31775 0.27231 0.82124
O83 O 0.89015 0.89826 0.07124
O84 O 0.76420 0.97067 0.82124
O85 O 0.19180 0.39826 0.67876
O86 O 0.81775 0.97067 0.42876
O87 O 0.89015 0.84472 0.67876
O88 O 0.26420 0.27231 0.42876
O89 O 0.39015 0.89826 0.67876
O90 O 0.26420 0.97067 0.92876
O91 O 0.69180 0.34472 0.67876
O92 O 0.81775 0.27231 0.92876
O93 O 0.89015 0.34472 0.57124
O94 O 0.26420 0.77231 0.82124
O95 O 0.19180 0.89826 0.57124
O96 O 0.81775 0.47067 0.82124
Zr1 Zr 0.54097 0.87149 0.62500
Zr2 Zr 0.79097 0.62149 0.37500
Zr3 Zr 0.54097 0.37149 0.62500
Zr4 Zr 0.29097 0.62149 0.37500
Zr5 Zr 0.54097 0.87149 0.12500
Zr6 Zr 0.29097 0.62149 0.87500
Zr7 Zr 0.54097 0.37149 0.12500
Zr8 Zr 0.79097 0.62149 0.87500
Zr9 Zr 0.04097 0.37149 0.12500
Zr10 Zr 0.04097 0.87149 0.12500
Zr11 Zr 0.79097 0.12149 0.37500
Zr12 Zr 0.29097 0.12149 0.37500
Zr13 Zr 0.29097 0.12149 0.87500
Zr14 Zr 0.79097 0.12149 0.87500
Zr15 Zr 0.04097 0.37149 0.62500
Zr16 Zr 0.04097 0.87149 0.62500
La1 La 0.66834 0.87149 0.37500
La2 La 0.79097 0.74886 0.12500
La3 La 0.41361 0.37149 0.37500
La4 La 0.29097 0.49412 0.12500
La5 La 0.91361 0.37149 0.37500
La6 La 0.79097 0.49412 0.62500
La7 La 0.16834 0.87149 0.37500
La8 La 0.29097 0.74886 0.62500
La9 La 0.41361 0.87149 0.87500
La10 La 0.79097 0.24886 0.12500
La11 La 0.66834 0.37149 0.87500
La12 La 0.29097 0.99412 0.12500
La13 La 0.16834 0.37149 0.87500
La14 La 0.29097 0.24886 0.62500
La15 La 0.91361 0.87149 0.87500
La16 La 0.79097 0.99412 0.62500
La17 La 0.54097 0.62149 0.75000
La18 La 0.04097 0.62149 0.50000
La19 La 0.54097 0.12149 0.00000
La20 La 0.04097 0.62149 0.00000
La21 La 0.54097 0.62149 0.25000
La22 La 0.54097 0.12149 0.50000
La23 La 0.04097 0.12149 0.25000
La24 La 0.04097 0.12149 0.75000
#End of li7la3zr2o12
