data_li7la3zr2o12
_cell_length_a                      13.23607
_cell_length_b                      13.23607
_cell_length_c                      12.701706
_cell_angle_alpha                   90.0
_cell_angle_beta                    90.0
_cell_angle_gamma                   90.0
_symmetry_space_group_name_H-M      P1
loop_
_space_group_symop_id
_space_group_symop_operation_xyz
1 x,y,z
loop_
_atom_site_label
_atom_site_type_symbol
_atom_site_fract_x
_atom_site_fract_y
_atom_site_fract_z
X1 X 0.59745 0.59736 0.63144
X2 X 0.59863 0.59871 0.62771
X3 X 0.59913 0.59912 0.62482
X4 X 0.59840 0.59833 0.62091
X5 X 0.59688 0.59704 0.61731
X6 X 0.59507 0.59556 0.61392
X7 X 0.59294 0.59388 0.61086
X8 X 0.59074 0.59215 0.60789
X9 X 0.58842 0.59034 0.60507
X10 X 0.58602 0.58847 0.60237
X11 X 0.58356 0.58655 0.59976
X12 X 0.58106 0.58460 0.59723
X13 X 0.57853 0.58261 0.59475
X14 X 0.57598 0.58057 0.59235
X15 X 0.57343 0.57853 0.58995
X16 X 0.57087 0.57647 0.58757
X17 X 0.56831 0.57439 0.58522
X18 X 0.56575 0.57228 0.58288
X19 X 0.56321 0.57016 0.58055
X20 X 0.56068 0.56802 0.57822
X21 X 0.55817 0.56585 0.57589
X22 X 0.55569 0.56367 0.57354
X23 X 0.55325 0.56147 0.57117
X24 X 0.55085 0.55925 0.56878
X25 X 0.54855 0.55699 0.56631
X26 X 0.54626 0.55473 0.56384
X27 X 0.54403 0.55246 0.56132
X28 X 0.54188 0.55016 0.55875
X29 X 0.53982 0.54784 0.55612
X30 X 0.53786 0.54551 0.55342
X31 X 0.53601 0.54316 0.55065
X32 X 0.53428 0.54080 0.54781
X33 X 0.53268 0.53843 0.54491
X34 X 0.53119 0.53605 0.54194
X35 X 0.52983 0.53367 0.53891
X36 X 0.52858 0.53129 0.53583
X37 X 0.52745 0.52890 0.53270
X38 X 0.52636 0.52652 0.52955
X39 X 0.52538 0.52412 0.52638
X40 X 0.52439 0.52173 0.52320
X41 X 0.52333 0.51932 0.52007
X42 X 0.52219 0.51689 0.51698
X43 X 0.52082 0.51444 0.51401
X44 X 0.51930 0.51199 0.51113
X45 X 0.51748 0.50954 0.50844
X46 X 0.51556 0.50710 0.50581
X47 X 0.51361 0.50467 0.50320
X48 X 0.51165 0.50224 0.50059
X49 X 0.50974 0.49982 0.49794
X50 X 0.50788 0.49741 0.49524
X51 X 0.50610 0.49500 0.49249
X52 X 0.50440 0.49259 0.48967
X53 X 0.50280 0.49020 0.48678
X54 X 0.50131 0.48781 0.48382
X55 X 0.49992 0.48544 0.48080
X56 X 0.49863 0.48309 0.47770
X57 X 0.49745 0.48076 0.47455
X58 X 0.49641 0.47848 0.47131
X59 X 0.49543 0.47622 0.46802
X60 X 0.49453 0.47400 0.46468
X61 X 0.49370 0.47183 0.46130
X62 X 0.49292 0.46971 0.45786
X63 X 0.49217 0.46763 0.45439
X64 X 0.49143 0.46555 0.45091
X65 X 0.49070 0.46354 0.44739
X66 X 0.48991 0.46156 0.44387
X67 X 0.48903 0.45957 0.44037
X68 X 0.48795 0.45754 0.43697
X69 X 0.48655 0.45544 0.43374
X70 X 0.48472 0.45327 0.43080
X71 X 0.48236 0.45110 0.42831
X72 X 0.47979 0.44899 0.42599
X73 X 0.47705 0.44696 0.42382
X74 X 0.47417 0.44503 0.42174
X75 X 0.47120 0.44323 0.41969
X76 X 0.46823 0.44142 0.41763
X77 X 0.46524 0.43970 0.41553
X78 X 0.46225 0.43802 0.41339
X79 X 0.45926 0.43636 0.41123
X80 X 0.45627 0.43471 0.40905
X81 X 0.45330 0.43308 0.40685
X82 X 0.45032 0.43146 0.40464
X83 X 0.44735 0.42985 0.40241
X84 X 0.44439 0.42824 0.40018
X85 X 0.44142 0.42664 0.39794
X86 X 0.43846 0.42504 0.39569
X87 X 0.43549 0.42344 0.39345
X88 X 0.43252 0.42184 0.39121
X89 X 0.42955 0.42024 0.38897
X90 X 0.42658 0.41864 0.38674
X91 X 0.42360 0.41704 0.38452
X92 X 0.42060 0.41544 0.38233
X93 X 0.41759 0.41382 0.38017
X94 X 0.41455 0.41219 0.37805
X95 X 0.41144 0.41053 0.37610
Li1 Li 0.48991 0.24693 0.30586
Li2 Li 0.07186 0.48991 0.05586
Li3 Li 0.32888 0.57186 0.30586
Li4 Li 0.74693 0.32888 0.05586
Li5 Li 0.48991 0.07186 0.19414
Li6 Li 0.57186 0.32888 0.94414
Li7 Li 0.32888 0.74693 0.19414
Li8 Li 0.24693 0.48991 0.94414
Li9 Li 0.82888 0.57186 0.19414
Li10 Li 0.24693 0.32888 0.44414
Li11 Li 0.98991 0.24693 0.19414
Li12 Li 0.57186 0.48991 0.44414
Li13 Li 0.32888 0.24693 0.80586
Li14 Li 0.24693 0.98991 0.05586
Li15 Li 0.48991 0.57186 0.80586
Li16 Li 0.57186 0.82888 0.05586
Li17 Li 0.98991 0.74693 0.80586
Li18 Li 0.57186 0.98991 0.55586
Li19 Li 0.82888 0.07186 0.80586
Li20 Li 0.24693 0.82888 0.55586
Li21 Li 0.98991 0.57186 0.69414
Li22 Li 0.07186 0.82888 0.44414
Li23 Li 0.82888 0.24693 0.69414
Li24 Li 0.74693 0.98991 0.44414
Li25 Li 0.32888 0.07186 0.69414
Li26 Li 0.74693 0.82888 0.94414
Li27 Li 0.48991 0.74693 0.69414
Li28 Li 0.07186 0.98991 0.94414
Li29 Li 0.82888 0.74693 0.30586
Li30 Li 0.74693 0.48991 0.55586
Li31 Li 0.98991 0.07186 0.30586
Li32 Li 0.07186 0.32888 0.55586
Li33 Li 0.59061 0.59061 0.62500
Li34 Li 0.72818 0.59061 0.37500
Li35 Li 0.22818 0.22818 0.62500
Li36 Li 0.09061 0.22818 0.37500
Li37 Li 0.59061 0.72818 0.87500
Li38 Li 0.22818 0.09061 0.87500
Li39 Li 0.72818 0.22818 0.87500
Li40 Li 0.59061 0.22818 0.12500
Li41 Li 0.09061 0.59061 0.87500
Li42 Li 0.22818 0.59061 0.12500
Li43 Li 0.59061 0.09061 0.37500
Li44 Li 0.22818 0.72818 0.37500
Li45 Li 0.09061 0.09061 0.12500
Li46 Li 0.72818 0.72818 0.12500
Li47 Li 0.09061 0.72818 0.62500
Li48 Li 0.72818 0.09061 0.62500
Li49 Li 0.40939 0.40939 0.37500
Li50 Li 0.90939 0.40939 0.12500
Li51 Li 0.40939 0.90939 0.12500
Li52 Li 0.40939 0.40939 0.87500
Li53 Li 0.90939 0.90939 0.87500
Li54 Li 0.40939 0.90939 0.62500
Li55 Li 0.90939 0.40939 0.62500
Li56 Li 0.90939 0.90939 0.37500
O1 O 0.44401 0.60391 0.65370
O2 O 0.71488 0.44401 0.40370
O3 O 0.37478 0.21488 0.65370
O4 O 0.10391 0.37478 0.40370
O5 O 0.44401 0.71488 0.84630
O6 O 0.21488 0.37478 0.59630
O7 O 0.37478 0.10391 0.84630
O8 O 0.60391 0.44401 0.59630
O9 O 0.87478 0.21488 0.84630
O10 O 0.60391 0.37478 0.09630
O11 O 0.94401 0.60391 0.84630
O12 O 0.21488 0.44401 0.09630
O13 O 0.37478 0.60391 0.15370
O14 O 0.60391 0.94401 0.40370
O15 O 0.44401 0.21488 0.15370
O16 O 0.21488 0.87478 0.40370
O17 O 0.94401 0.10391 0.15370
O18 O 0.21488 0.94401 0.90370
O19 O 0.87478 0.71488 0.15370
O20 O 0.60391 0.87478 0.90370
O21 O 0.94401 0.21488 0.34630
O22 O 0.71488 0.87478 0.09630
O23 O 0.87478 0.60391 0.34630
O24 O 0.10391 0.94401 0.09630
O25 O 0.37478 0.71488 0.34630
O26 O 0.10391 0.87478 0.59630
O27 O 0.44401 0.10391 0.34630
O28 O 0.71488 0.94401 0.59630
O29 O 0.87478 0.10391 0.65370
O30 O 0.10391 0.44401 0.90370
O31 O 0.94401 0.71488 0.65370
O32 O 0.71488 0.37478 0.90370
O33 O 0.46436 0.80695 0.53433
O34 O 0.51184 0.46436 0.28433
O35 O 0.35443 0.01184 0.53433
O36 O 0.30695 0.35443 0.28433
O37 O 0.46436 0.51184 0.96567
O38 O 0.01184 0.35443 0.71567
O39 O 0.35443 0.30695 0.96567
O40 O 0.80695 0.46436 0.71567
O41 O 0.85443 0.01184 0.96567
O42 O 0.80695 0.35443 0.21567
O43 O 0.96436 0.80695 0.96567
O44 O 0.01184 0.46436 0.21567
O45 O 0.35443 0.80695 0.03433
O46 O 0.80695 0.96436 0.28433
O47 O 0.46436 0.01184 0.03433
O48 O 0.01184 0.85443 0.28433
O49 O 0.96436 0.30695 0.03433
O50 O 0.01184 0.96436 0.78433
O51 O 0.85443 0.51184 0.03433
O52 O 0.80695 0.85443 0.78433
O53 O 0.96436 0.01184 0.46567
O54 O 0.51184 0.85443 0.21567
O55 O 0.85443 0.80695 0.46567
O56 O 0.30695 0.96436 0.21567
O57 O 0.35443 0.51184 0.46567
O58 O 0.30695 0.85443 0.71567
O59 O 0.46436 0.30695 0.46567
O60 O 0.51184 0.96436 0.71567
O61 O 0.85443 0.30695 0.53433
O62 O 0.30695 0.46436 0.78433
O63 O 0.96436 0.51184 0.53433
O64 O 0.51184 0.35443 0.78433
O65 O 0.56022 0.63262 0.44624
O66 O 0.68617 0.56022 0.19624
O67 O 0.25857 0.18617 0.44624
O68 O 0.13262 0.25857 0.19624
O69 O 0.56022 0.68617 0.05376
O70 O 0.18617 0.25857 0.80376
O71 O 0.25857 0.13262 0.05376
O72 O 0.63262 0.56022 0.80376
O73 O 0.75857 0.18617 0.05376
O74 O 0.63262 0.25857 0.30376
O75 O 0.06022 0.63262 0.05376
O76 O 0.18617 0.56022 0.30376
O77 O 0.25857 0.63262 0.94624
O78 O 0.63262 0.06022 0.19624
O79 O 0.56022 0.18617 0.94624
O80 O 0.18617 0.75857 0.19624
O81 O 0.06022 0.13262 0.94624
O82 O 0.18617 0.06022 0.69624
O83 O 0.75857 0.68617 0.94624
O84 O 0.63262 0.75857 0.69624
O85 O 0.06022 0.18617 0.55376
O86 O 0.68617 0.75857 0.30376
O87 O 0.75857 0.63262 0.55376
O88 O 0.13262 0.06022 0.30376
O89 O 0.25857 0.68617 0.55376
O90 O 0.13262 0.75857 0.80376
O91 O 0.56022 0.13262 0.55376
O92 O 0.68617 0.06022 0.80376
O93 O 0.75857 0.13262 0.44624
O94 O 0.13262 0.56022 0.69624
O95 O 0.06022 0.68617 0.44624
O96 O 0.68617 0.25857 0.69624
Zr1 Zr 0.40939 0.65939 0.50000
Zr2 Zr 0.65939 0.40939 0.25000
Zr3 Zr 0.40939 0.15939 0.50000
Zr4 Zr 0.15939 0.40939 0.25000
Zr5 Zr 0.40939 0.65939 0.00000
Zr6 Zr 0.15939 0.40939 0.75000
Zr7 Zr 0.40939 0.15939 0.00000
Zr8 Zr 0.65939 0.40939 0.75000
Zr9 Zr 0.90939 0.15939 0.00000
Zr10 Zr 0.90939 0.65939 0.00000
Zr11 Zr 0.65939 0.90939 0.25000
Zr12 Zr 0.15939 0.90939 0.25000
Zr13 Zr 0.15939 0.90939 0.75000
Zr14 Zr 0.65939 0.90939 0.75000
Zr15 Zr 0.90939 0.15939 0.50000
Zr16 Zr 0.90939 0.65939 0.50000
La1 La 0.53676 0.65939 0.25000
La2 La 0.65939 0.53676 0.00000
La3 La 0.28202 0.15939 0.25000
La4 La 0.15939 0.28202 0.00000
La5 La 0.78202 0.15939 0.25000
La6 La 0.65939 0.28202 0.50000
La7 La 0.03676 0.65939 0.25000
La8 La 0.15939 0.53676 0.50000
La9 La 0.28202 0.65939 0.75000
La10 La 0.65939 0.03676 0.00000
La11 La 0.53676 0.15939 0.75000
La12 La 0.15939 0.78202 0.00000
La13 La 0.03676 0.15939 0.75000
La14 La 0.15939 0.03676 0.50000
La15 La 0.78202 0.65939 0.75000
La16 La 0.65939 0.78202 0.50000
La17 La 0.40939 0.40939 0.62500
La18 La 0.90939 0.40939 0.37500
La19 La 0.40939 0.90939 0.87500
La20 La 0.90939 0.40939 0.87500
La21 La 0.40939 0.40939 0.12500
La22 La 0.40939 0.90939 0.37500
La23 La 0.90939 0.90939 0.12500
La24 La 0.90939 0.90939 0.62500
#End of li7la3zr2o12
