data_li7la3zr2o12
_cell_length_a                      13.23607
_cell_length_b                      13.23607
_cell_length_c                      12.701706
_cell_angle_alpha                   90.0
_cell_angle_beta                    90.0
_cell_angle_gamma                   90.0
_symmetry_space_group_name_H-M      P1
loop_
_space_group_symop_id
_space_group_symop_operation_xyz
1 x,y,z
loop_
_atom_site_label
_atom_site_type_symbol
_atom_site_fract_x
_atom_site_fract_y
_atom_site_fract_z
X1 X 0.37004 0.45937 0.62036
X2 X 0.36830 0.46275 0.62164
X3 X 0.36661 0.46621 0.62274
X4 X 0.36496 0.46975 0.62365
X5 X 0.36341 0.47340 0.62420
X6 X 0.36161 0.47852 0.62417
X7 X 0.36234 0.47626 0.62429
X8 X 0.36378 0.47254 0.62408
X9 X 0.36533 0.46890 0.62351
X10 X 0.36700 0.46540 0.62248
X11 X 0.36871 0.46196 0.62133
X12 X 0.37046 0.45859 0.62002
X13 X 0.37223 0.45528 0.61859
X14 X 0.37404 0.45202 0.61708
X15 X 0.37588 0.44881 0.61550
X16 X 0.37776 0.44566 0.61384
X17 X 0.37963 0.44251 0.61219
X18 X 0.38153 0.43939 0.61050
X19 X 0.38345 0.43629 0.60878
X20 X 0.38538 0.43322 0.60704
X21 X 0.38734 0.43016 0.60528
X22 X 0.38931 0.42713 0.60350
X23 X 0.39129 0.42412 0.60171
X24 X 0.39329 0.42112 0.59990
X25 X 0.39530 0.41815 0.59807
X26 X 0.39733 0.41520 0.59621
X27 X 0.39939 0.41233 0.59426
X28 X 0.40144 0.40946 0.59230
X29 X 0.40351 0.40665 0.59027
X30 X 0.40561 0.40393 0.58813
X31 X 0.40773 0.40135 0.58585
X32 X 0.40989 0.39897 0.58337
X33 X 0.41209 0.39690 0.58065
X34 X 0.41434 0.39524 0.57766
X35 X 0.41662 0.39408 0.57446
X36 X 0.41890 0.39342 0.57111
X37 X 0.42117 0.39319 0.56769
X38 X 0.42339 0.39352 0.56424
X39 X 0.42562 0.39384 0.56079
X40 X 0.42781 0.39439 0.55736
X41 X 0.42997 0.39511 0.55393
X42 X 0.43210 0.39598 0.55053
X43 X 0.43421 0.39694 0.54714
X44 X 0.43631 0.39799 0.54376
X45 X 0.43839 0.39908 0.54039
X46 X 0.44049 0.40018 0.53703
X47 X 0.44260 0.40126 0.53368
X48 X 0.44483 0.40213 0.53035
X49 X 0.44718 0.40282 0.52705
X50 X 0.44997 0.40293 0.52406
X51 X 0.45321 0.40269 0.52164
X52 X 0.45678 0.40236 0.51980
X53 X 0.46051 0.40205 0.51834
X54 X 0.46435 0.40187 0.51719
X55 X 0.46822 0.40176 0.51613
X56 X 0.47210 0.40174 0.51512
X57 X 0.47597 0.40182 0.51410
X58 X 0.47983 0.40200 0.51304
X59 X 0.48367 0.40227 0.51191
X60 X 0.48748 0.40263 0.51071
X61 X 0.49126 0.40306 0.50943
X62 X 0.49501 0.40356 0.50808
X63 X 0.49870 0.40415 0.50661
X64 X 0.50234 0.40484 0.50503
X65 X 0.50591 0.40562 0.50334
X66 X 0.50941 0.40648 0.50153
X67 X 0.51285 0.40742 0.49965
X68 X 0.51609 0.40859 0.49754
X69 X 0.51933 0.40977 0.49543
X70 X 0.52233 0.41123 0.49313
X71 X 0.52526 0.41281 0.49082
X72 X 0.52802 0.41461 0.48847
X73 X 0.53067 0.41660 0.48613
X74 X 0.53311 0.41888 0.48384
X75 X 0.53540 0.42137 0.48162
X76 X 0.53745 0.42415 0.47952
X77 X 0.53931 0.42713 0.47754
X78 X 0.54095 0.43031 0.47567
X79 X 0.54247 0.43357 0.47385
X80 X 0.54376 0.43695 0.47209
X81 X 0.54490 0.44039 0.47032
X82 X 0.54595 0.44384 0.46853
X83 X 0.54683 0.44728 0.46662
X84 X 0.54765 0.45069 0.46461
X85 X 0.54841 0.45402 0.46245
X86 X 0.54913 0.45726 0.46013
X87 X 0.54984 0.46035 0.45759
X88 X 0.55058 0.46326 0.45484
X89 X 0.55134 0.46608 0.45199
X90 X 0.55224 0.46850 0.44881
X91 X 0.55324 0.47079 0.44556
X92 X 0.55452 0.47296 0.44232
X93 X 0.55605 0.47516 0.43923
X94 X 0.55819 0.47755 0.43674
X95 X 0.56062 0.48000 0.43464
X96 X 0.56338 0.48251 0.43314
X97 X 0.56620 0.48502 0.43179
X98 X 0.56909 0.48753 0.43058
X99 X 0.57199 0.49003 0.42938
X100 X 0.57488 0.49253 0.42814
X101 X 0.57775 0.49502 0.42686
X102 X 0.58060 0.49751 0.42550
X103 X 0.58341 0.49998 0.42405
X104 X 0.58620 0.50245 0.42252
X105 X 0.58894 0.50489 0.42088
X106 X 0.59165 0.50732 0.41915
X107 X 0.59436 0.50975 0.41742
X108 X 0.59699 0.51214 0.41552
X109 X 0.59958 0.51450 0.41351
X110 X 0.60213 0.51684 0.41142
X111 X 0.60464 0.51915 0.40925
X112 X 0.60711 0.52143 0.40701
X113 X 0.60956 0.52369 0.40470
X114 X 0.61199 0.52592 0.40234
X115 X 0.61440 0.52811 0.39993
X116 X 0.61680 0.53028 0.39749
X117 X 0.61921 0.53242 0.39502
X118 X 0.62162 0.53456 0.39255
X119 X 0.62406 0.53664 0.39006
X120 X 0.62655 0.53869 0.38760
X121 X 0.62911 0.54069 0.38518
X122 X 0.63178 0.54265 0.38283
X123 X 0.63458 0.54455 0.38062
X124 X 0.63748 0.54641 0.37850
X125 X 0.64068 0.54811 0.37675
X126 X 0.64413 0.54964 0.37535
X127 X 0.64785 0.55092 0.37433
X128 X 0.64304 0.54924 0.37444
X129 X 0.63939 0.54770 0.37393
X130 X 0.63585 0.54605 0.37304
X131 X 0.63238 0.54435 0.37195
X132 X 0.62900 0.54261 0.37067
Li1 Li 0.37149 0.45902 0.62500
Li2 Li 0.95344 0.70201 0.37500
Li3 Li 0.21046 0.78396 0.62500
Li4 Li 0.62851 0.54097 0.37500
Li5 Li 0.37149 0.28396 0.51329
Li6 Li 0.45344 0.54097 0.26329
Li7 Li 0.21046 0.95902 0.51329
Li8 Li 0.12851 0.70201 0.26329
Li9 Li 0.71046 0.78396 0.51329
Li10 Li 0.12851 0.54097 0.76329
Li11 Li 0.87149 0.45902 0.51329
Li12 Li 0.45344 0.70201 0.76329
Li13 Li 0.21046 0.45902 0.12500
Li14 Li 0.12851 0.20201 0.37500
Li15 Li 0.37149 0.78396 0.12500
Li16 Li 0.45344 0.04097 0.37500
Li17 Li 0.87149 0.95902 0.12500
Li18 Li 0.45344 0.20201 0.87500
Li19 Li 0.71046 0.28396 0.12500
Li20 Li 0.12851 0.04097 0.87500
Li21 Li 0.87149 0.78396 0.01329
Li22 Li 0.95344 0.04097 0.76329
Li23 Li 0.71046 0.45902 0.01329
Li24 Li 0.62851 0.20201 0.76329
Li25 Li 0.21046 0.28396 0.01329
Li26 Li 0.62851 0.04097 0.26329
Li27 Li 0.37149 0.95902 0.01329
Li28 Li 0.95344 0.20201 0.26329
Li29 Li 0.71046 0.95902 0.62500
Li30 Li 0.62851 0.70201 0.87500
Li31 Li 0.87149 0.28396 0.62500
Li32 Li 0.95344 0.54097 0.87500
Li33 Li 0.47219 0.80270 0.94414
Li34 Li 0.60976 0.80270 0.69414
Li35 Li 0.10976 0.44028 0.94414
Li36 Li 0.97219 0.44028 0.69414
Li37 Li 0.47219 0.94028 0.19414
Li38 Li 0.10976 0.30270 0.19414
Li39 Li 0.60976 0.44028 0.19414
Li40 Li 0.47219 0.44028 0.44414
Li41 Li 0.97219 0.80270 0.19414
Li42 Li 0.10976 0.80270 0.44414
Li43 Li 0.47219 0.30270 0.69414
Li44 Li 0.10976 0.94028 0.69414
Li45 Li 0.97219 0.30270 0.44414
Li46 Li 0.60976 0.94028 0.44414
Li47 Li 0.97219 0.94028 0.94414
Li48 Li 0.60976 0.30270 0.94414
Li49 Li 0.29098 0.62149 0.69414
Li50 Li 0.79098 0.62149 0.44414
Li51 Li 0.29098 0.12149 0.44414
Li52 Li 0.29098 0.62149 0.19414
Li53 Li 0.79098 0.12149 0.19414
Li54 Li 0.29098 0.12149 0.94414
Li55 Li 0.79098 0.62149 0.94414
Li56 Li 0.79098 0.12149 0.69414
O1 O 0.32559 0.81601 0.97285
O2 O 0.59646 0.65611 0.72285
O3 O 0.25636 0.42697 0.97285
O4 O 0.98549 0.58687 0.72285
O5 O 0.32559 0.92697 0.16544
O6 O 0.09646 0.58687 0.91544
O7 O 0.25636 0.31601 0.16544
O8 O 0.48549 0.65611 0.91544
O9 O 0.75636 0.42697 0.16544
O10 O 0.48549 0.58687 0.41544
O11 O 0.82559 0.81601 0.16544
O12 O 0.09646 0.65611 0.41544
O13 O 0.25636 0.81601 0.47285
O14 O 0.48549 0.15611 0.72285
O15 O 0.32559 0.42697 0.47285
O16 O 0.09646 0.08687 0.72285
O17 O 0.82559 0.31601 0.47285
O18 O 0.09646 0.15611 0.22285
O19 O 0.75636 0.92697 0.47285
O20 O 0.48549 0.08687 0.22285
O21 O 0.82559 0.42697 0.66544
O22 O 0.59646 0.08687 0.41544
O23 O 0.75636 0.81601 0.66544
O24 O 0.98549 0.15611 0.41544
O25 O 0.25636 0.92697 0.66544
O26 O 0.98549 0.08687 0.91544
O27 O 0.32559 0.31601 0.66544
O28 O 0.59646 0.15611 0.91544
O29 O 0.75636 0.31601 0.97285
O30 O 0.98549 0.65611 0.22285
O31 O 0.82559 0.92697 0.97285
O32 O 0.59646 0.58687 0.22285
O33 O 0.34594 0.01905 0.85348
O34 O 0.39342 0.67645 0.60348
O35 O 0.23601 0.22393 0.85348
O36 O 0.18853 0.56653 0.60348
O37 O 0.34594 0.72393 0.28481
O38 O 0.89342 0.56653 0.03481
O39 O 0.23601 0.51905 0.28481
O40 O 0.68853 0.67645 0.03481
O41 O 0.73601 0.22393 0.28481
O42 O 0.68853 0.56653 0.53481
O43 O 0.84594 0.01905 0.28481
O44 O 0.89342 0.67645 0.53481
O45 O 0.23601 0.01905 0.35348
O46 O 0.68853 0.17645 0.60348
O47 O 0.34594 0.22393 0.35348
O48 O 0.89342 0.06653 0.60348
O49 O 0.84594 0.51905 0.35348
O50 O 0.89342 0.17645 0.10348
O51 O 0.73601 0.72393 0.35348
O52 O 0.68853 0.06653 0.10348
O53 O 0.84594 0.22393 0.78481
O54 O 0.39342 0.06653 0.53481
O55 O 0.73601 0.01905 0.78481
O56 O 0.18853 0.17645 0.53481
O57 O 0.23601 0.72393 0.78481
O58 O 0.18853 0.06653 0.03481
O59 O 0.34594 0.51905 0.78481
O60 O 0.39342 0.17645 0.03481
O61 O 0.73601 0.51905 0.85348
O62 O 0.18853 0.67645 0.10348
O63 O 0.84594 0.72393 0.85348
O64 O 0.39342 0.56653 0.10348
O65 O 0.44180 0.84472 0.76538
O66 O 0.56775 0.77231 0.51538
O67 O 0.14015 0.39826 0.76538
O68 O 0.01420 0.47067 0.51538
O69 O 0.44180 0.89826 0.37291
O70 O 0.06775 0.47067 0.12291
O71 O 0.14015 0.34472 0.37291
O72 O 0.51420 0.77231 0.12291
O73 O 0.64015 0.39826 0.37291
O74 O 0.51420 0.47067 0.62291
O75 O 0.94180 0.84472 0.37291
O76 O 0.06775 0.77231 0.62291
O77 O 0.14015 0.84472 0.26538
O78 O 0.51420 0.27231 0.51538
O79 O 0.44180 0.39826 0.26538
O80 O 0.06775 0.97067 0.51538
O81 O 0.94180 0.34472 0.26538
O82 O 0.06775 0.27231 0.01538
O83 O 0.64015 0.89826 0.26538
O84 O 0.51420 0.97067 0.01538
O85 O 0.94180 0.39826 0.87291
O86 O 0.56775 0.97067 0.62291
O87 O 0.64015 0.84472 0.87291
O88 O 0.01420 0.27231 0.62291
O89 O 0.14015 0.89826 0.87291
O90 O 0.01420 0.97067 0.12291
O91 O 0.44180 0.34472 0.87291
O92 O 0.56775 0.27231 0.12291
O93 O 0.64015 0.34472 0.76538
O94 O 0.01420 0.77231 0.01538
O95 O 0.94180 0.89826 0.76538
O96 O 0.56775 0.47067 0.01538
Zr1 Zr 0.29098 0.87149 0.81914
Zr2 Zr 0.54098 0.62149 0.56914
Zr3 Zr 0.29098 0.37149 0.81914
Zr4 Zr 0.04097 0.62149 0.56914
Zr5 Zr 0.29098 0.87149 0.31914
Zr6 Zr 0.04097 0.62149 0.06914
Zr7 Zr 0.29098 0.37149 0.31914
Zr8 Zr 0.54098 0.62149 0.06914
Zr9 Zr 0.79098 0.37149 0.31914
Zr10 Zr 0.79098 0.87149 0.31914
Zr11 Zr 0.54098 0.12149 0.56914
Zr12 Zr 0.04097 0.12149 0.56914
Zr13 Zr 0.04097 0.12149 0.06914
Zr14 Zr 0.54098 0.12149 0.06914
Zr15 Zr 0.79098 0.37149 0.81914
Zr16 Zr 0.79098 0.87149 0.81914
La1 La 0.41835 0.87149 0.56914
La2 La 0.54098 0.74886 0.31914
La3 La 0.16361 0.37149 0.56914
La4 La 0.04097 0.49412 0.31914
La5 La 0.66361 0.37149 0.56914
La6 La 0.54098 0.49412 0.81914
La7 La 0.91835 0.87149 0.56914
La8 La 0.04097 0.74886 0.81914
La9 La 0.16361 0.87149 0.06914
La10 La 0.54098 0.24886 0.31914
La11 La 0.41835 0.37149 0.06914
La12 La 0.04097 0.99412 0.31914
La13 La 0.91835 0.37149 0.06914
La14 La 0.04097 0.24886 0.81914
La15 La 0.66361 0.87149 0.06914
La16 La 0.54098 0.99412 0.81914
La17 La 0.29098 0.62149 0.94414
La18 La 0.79098 0.62149 0.69414
La19 La 0.29098 0.12149 0.19414
La20 La 0.79098 0.62149 0.19414
La21 La 0.29098 0.62149 0.44414
La22 La 0.29098 0.12149 0.69414
La23 La 0.79098 0.12149 0.44414
La24 La 0.79098 0.12149 0.94414
#End of li7la3zr2o12
