data_li7la3zr2o12
_cell_length_a                      13.23607
_cell_length_b                      13.23607
_cell_length_c                      12.701706
_cell_angle_alpha                   90.0
_cell_angle_beta                    90.0
_cell_angle_gamma                   90.0
_symmetry_space_group_name_H-M      P1
loop_
_space_group_symop_id
_space_group_symop_operation_xyz
1 x,y,z
loop_
_atom_site_label
_atom_site_type_symbol
_atom_site_fract_x
_atom_site_fract_y
_atom_site_fract_z
X1 X 0.62929 0.50974 0.33595
X2 X 0.62755 0.51313 0.33723
X3 X 0.62585 0.51659 0.33833
X4 X 0.62420 0.52012 0.33924
X5 X 0.62264 0.52377 0.33978
X6 X 0.62085 0.52883 0.33973
X7 X 0.61819 0.52997 0.34002
X8 X 0.61428 0.53057 0.34063
X9 X 0.61037 0.53085 0.34142
X10 X 0.60646 0.53108 0.34226
X11 X 0.60257 0.53122 0.34321
X12 X 0.59871 0.53129 0.34430
X13 X 0.59489 0.53132 0.34552
X14 X 0.59111 0.53131 0.34687
X15 X 0.58738 0.53128 0.34837
X16 X 0.58370 0.53123 0.35000
X17 X 0.58011 0.53118 0.35185
X18 X 0.57653 0.53113 0.35369
X19 X 0.57300 0.53108 0.35565
X20 X 0.56952 0.53105 0.35770
X21 X 0.56609 0.53103 0.35984
X22 X 0.56270 0.53104 0.36205
X23 X 0.55936 0.53109 0.36434
X24 X 0.55606 0.53117 0.36668
X25 X 0.55279 0.53129 0.36908
X26 X 0.54956 0.53147 0.37153
X27 X 0.54637 0.53171 0.37403
X28 X 0.54324 0.53208 0.37659
X29 X 0.54011 0.53245 0.37915
X30 X 0.53701 0.53290 0.38175
X31 X 0.53396 0.53343 0.38437
X32 X 0.53093 0.53404 0.38703
X33 X 0.52795 0.53475 0.38970
X34 X 0.52502 0.53556 0.39240
X35 X 0.52212 0.53647 0.39511
X36 X 0.51928 0.53749 0.39784
X37 X 0.51649 0.53861 0.40058
X38 X 0.51375 0.53985 0.40333
X39 X 0.51111 0.54129 0.40609
X40 X 0.50848 0.54272 0.40884
X41 X 0.50590 0.54426 0.41159
X42 X 0.50337 0.54589 0.41434
X43 X 0.50090 0.54761 0.41708
X44 X 0.49848 0.54942 0.41981
X45 X 0.49611 0.55130 0.42253
X46 X 0.49377 0.55324 0.42523
X47 X 0.49146 0.55523 0.42793
X48 X 0.48920 0.55731 0.43060
X49 X 0.48694 0.55940 0.43326
X50 X 0.48472 0.56155 0.43590
X51 X 0.48251 0.56372 0.43853
X52 X 0.48030 0.56591 0.44115
X53 X 0.47812 0.56813 0.44376
X54 X 0.47597 0.57038 0.44638
X55 X 0.47384 0.57265 0.44900
X56 X 0.47188 0.57502 0.45166
X57 X 0.47018 0.57754 0.45437
X58 X 0.46898 0.58028 0.45713
X59 X 0.46840 0.58327 0.45983
X60 X 0.46825 0.58643 0.46237
X61 X 0.46825 0.58972 0.46475
X62 X 0.46826 0.59312 0.46693
X63 X 0.46819 0.59659 0.46900
X64 X 0.46802 0.60011 0.47096
X65 X 0.46772 0.60367 0.47283
X66 X 0.46725 0.60726 0.47461
X67 X 0.46662 0.61085 0.47631
X68 X 0.46598 0.61368 0.47759
X69 X 0.46567 0.61315 0.48094
X70 X 0.46531 0.61205 0.48493
X71 X 0.46491 0.61075 0.48885
X72 X 0.46442 0.60922 0.49266
X73 X 0.46385 0.60751 0.49638
X74 X 0.46320 0.60564 0.50001
X75 X 0.46245 0.60365 0.50354
X76 X 0.46160 0.60155 0.50696
X77 X 0.46066 0.59934 0.51029
X78 X 0.45959 0.59706 0.51353
X79 X 0.45847 0.59473 0.51671
X80 X 0.45711 0.59234 0.51973
X81 X 0.45575 0.58995 0.52276
X82 X 0.45416 0.58752 0.52562
X83 X 0.45251 0.58509 0.52845
X84 X 0.45076 0.58266 0.53121
X85 X 0.44893 0.58022 0.53390
X86 X 0.44700 0.57778 0.53652
X87 X 0.44503 0.57534 0.53910
X88 X 0.44302 0.57289 0.54164
X89 X 0.44112 0.57055 0.54408
X90 X 0.43921 0.56824 0.54645
X91 X 0.43757 0.56578 0.54925
X92 X 0.43593 0.56331 0.55206
X93 X 0.43482 0.56088 0.55515
X94 X 0.43380 0.55847 0.55830
X95 X 0.43281 0.55607 0.56147
X96 X 0.43185 0.55368 0.56465
X97 X 0.43085 0.55129 0.56783
X98 X 0.42977 0.54892 0.57099
X99 X 0.42859 0.54654 0.57410
X100 X 0.42728 0.54416 0.57716
X101 X 0.42585 0.54179 0.58017
X102 X 0.42429 0.53943 0.58311
X103 X 0.42259 0.53708 0.58597
X104 X 0.42076 0.53474 0.58876
X105 X 0.41882 0.53241 0.59148
X106 X 0.41678 0.53010 0.59414
X107 X 0.41473 0.52779 0.59679
X108 X 0.41251 0.52552 0.59932
X109 X 0.41022 0.52327 0.60180
X110 X 0.40787 0.52104 0.60424
X111 X 0.40546 0.51883 0.60664
X112 X 0.40302 0.51664 0.60901
X113 X 0.40054 0.51446 0.61137
X114 X 0.39803 0.51231 0.61371
X115 X 0.39550 0.51017 0.61605
X116 X 0.39296 0.50806 0.61839
X117 X 0.39041 0.50597 0.62074
X118 X 0.38786 0.50387 0.62309
X119 X 0.38530 0.50182 0.62547
X120 X 0.38275 0.49979 0.62788
X121 X 0.38021 0.49778 0.63033
X122 X 0.37769 0.49581 0.63283
X123 X 0.37521 0.49387 0.63540
X124 X 0.37278 0.49197 0.63805
X125 X 0.37041 0.49012 0.64080
X126 X 0.36813 0.48835 0.64368
X127 X 0.36590 0.48660 0.64662
X128 X 0.36391 0.48501 0.64982
X129 X 0.36221 0.48360 0.65330
Li1 Li 0.63086 0.50937 0.34043
Li2 Li 0.21281 0.75235 0.09043
Li3 Li 0.46983 0.83430 0.34043
Li4 Li 0.88788 0.59132 0.09043
Li5 Li 0.63086 0.33430 0.22872
Li6 Li 0.71281 0.59132 0.97872
Li7 Li 0.46983 0.00937 0.22872
Li8 Li 0.38788 0.75235 0.97872
Li9 Li 0.96983 0.83430 0.22872
Li10 Li 0.38788 0.59132 0.47872
Li11 Li 0.13086 0.50937 0.22872
Li12 Li 0.71281 0.75235 0.47872
Li13 Li 0.46983 0.50937 0.84043
Li14 Li 0.38788 0.25235 0.09043
Li15 Li 0.63086 0.83430 0.84043
Li16 Li 0.71281 0.09132 0.09043
Li17 Li 0.13086 0.00937 0.84043
Li18 Li 0.71281 0.25235 0.59043
Li19 Li 0.96983 0.33430 0.84043
Li20 Li 0.38788 0.09132 0.59043
Li21 Li 0.13086 0.83430 0.72872
Li22 Li 0.21281 0.09132 0.47872
Li23 Li 0.96983 0.50937 0.72872
Li24 Li 0.88788 0.25235 0.47872
Li25 Li 0.46983 0.33430 0.72872
Li26 Li 0.88788 0.09132 0.97872
Li27 Li 0.63086 0.00937 0.72872
Li28 Li 0.21281 0.25235 0.97872
Li29 Li 0.96983 0.00937 0.34043
Li30 Li 0.88788 0.75235 0.59043
Li31 Li 0.13086 0.33430 0.34043
Li32 Li 0.21281 0.59132 0.59043
Li33 Li 0.73156 0.85305 0.65957
Li34 Li 0.86914 0.85305 0.40957
Li35 Li 0.36914 0.49063 0.65957
Li36 Li 0.23156 0.49063 0.40957
Li37 Li 0.73156 0.99063 0.90957
Li38 Li 0.36914 0.35305 0.90957
Li39 Li 0.86914 0.49063 0.90957
Li40 Li 0.73156 0.49063 0.15957
Li41 Li 0.23156 0.85305 0.90957
Li42 Li 0.36914 0.85305 0.15957
Li43 Li 0.73156 0.35305 0.40957
Li44 Li 0.36914 0.99063 0.40957
Li45 Li 0.23156 0.35305 0.15957
Li46 Li 0.86914 0.99063 0.15957
Li47 Li 0.23156 0.99063 0.65957
Li48 Li 0.86914 0.35305 0.65957
Li49 Li 0.55035 0.67184 0.40957
Li50 Li 0.05035 0.67184 0.15957
Li51 Li 0.55035 0.17184 0.15957
Li52 Li 0.55035 0.67184 0.90957
Li53 Li 0.05035 0.17184 0.90957
Li54 Li 0.55035 0.17184 0.65957
Li55 Li 0.05035 0.67184 0.65957
Li56 Li 0.05035 0.17184 0.40957
O1 O 0.58496 0.86636 0.68828
O2 O 0.85583 0.70645 0.43828
O3 O 0.51573 0.47732 0.68828
O4 O 0.24486 0.63722 0.43828
O5 O 0.58496 0.97732 0.88087
O6 O 0.35583 0.63722 0.63087
O7 O 0.51573 0.36636 0.88087
O8 O 0.74486 0.70645 0.63087
O9 O 0.01573 0.47732 0.88087
O10 O 0.74486 0.63722 0.13087
O11 O 0.08496 0.86636 0.88087
O12 O 0.35583 0.70645 0.13087
O13 O 0.51573 0.86636 0.18828
O14 O 0.74486 0.20645 0.43828
O15 O 0.58496 0.47732 0.18828
O16 O 0.35583 0.13722 0.43828
O17 O 0.08496 0.36636 0.18828
O18 O 0.35583 0.20645 0.93828
O19 O 0.01573 0.97732 0.18828
O20 O 0.74486 0.13722 0.93828
O21 O 0.08496 0.47732 0.38087
O22 O 0.85583 0.13722 0.13087
O23 O 0.01573 0.86636 0.38087
O24 O 0.24486 0.20645 0.13087
O25 O 0.51573 0.97732 0.38087
O26 O 0.24486 0.13722 0.63087
O27 O 0.58496 0.36636 0.38087
O28 O 0.85583 0.20645 0.63087
O29 O 0.01573 0.36636 0.68828
O30 O 0.24486 0.70645 0.93828
O31 O 0.08496 0.97732 0.68828
O32 O 0.85583 0.63722 0.93828
O33 O 0.60531 0.06940 0.56890
O34 O 0.65279 0.72680 0.31890
O35 O 0.49538 0.27428 0.56890
O36 O 0.44790 0.61688 0.31890
O37 O 0.60531 0.77428 0.00024
O38 O 0.15279 0.61688 0.75024
O39 O 0.49538 0.56940 0.00024
O40 O 0.94790 0.72680 0.75024
O41 O 0.99538 0.27428 0.00024
O42 O 0.94790 0.61688 0.25024
O43 O 0.10531 0.06940 0.00024
O44 O 0.15279 0.72680 0.25024
O45 O 0.49538 0.06940 0.06890
O46 O 0.94790 0.22680 0.31890
O47 O 0.60531 0.27428 0.06890
O48 O 0.15279 0.11688 0.31890
O49 O 0.10531 0.56940 0.06890
O50 O 0.15279 0.22680 0.81890
O51 O 0.99538 0.77428 0.06890
O52 O 0.94790 0.11688 0.81890
O53 O 0.10531 0.27428 0.50024
O54 O 0.65279 0.11688 0.25024
O55 O 0.99538 0.06940 0.50024
O56 O 0.44790 0.22680 0.25024
O57 O 0.49538 0.77428 0.50024
O58 O 0.44790 0.11688 0.75024
O59 O 0.60531 0.56940 0.50024
O60 O 0.65279 0.22680 0.75024
O61 O 0.99538 0.56940 0.56890
O62 O 0.44790 0.72680 0.81890
O63 O 0.10531 0.77428 0.56890
O64 O 0.65279 0.61688 0.81890
O65 O 0.70117 0.89507 0.48081
O66 O 0.82712 0.82266 0.23081
O67 O 0.39952 0.44861 0.48081
O68 O 0.27357 0.52102 0.23081
O69 O 0.70117 0.94861 0.08834
O70 O 0.32712 0.52102 0.83834
O71 O 0.39952 0.39507 0.08834
O72 O 0.77357 0.82266 0.83834
O73 O 0.89952 0.44861 0.08834
O74 O 0.77357 0.52102 0.33834
O75 O 0.20117 0.89507 0.08834
O76 O 0.32712 0.82266 0.33834
O77 O 0.39952 0.89507 0.98081
O78 O 0.77357 0.32266 0.23081
O79 O 0.70117 0.44861 0.98081
O80 O 0.32712 0.02102 0.23081
O81 O 0.20117 0.39507 0.98081
O82 O 0.32712 0.32266 0.73081
O83 O 0.89952 0.94861 0.98081
O84 O 0.77357 0.02102 0.73081
O85 O 0.20117 0.44861 0.58834
O86 O 0.82712 0.02102 0.33834
O87 O 0.89952 0.89507 0.58834
O88 O 0.27357 0.32266 0.33834
O89 O 0.39952 0.94861 0.58834
O90 O 0.27357 0.02102 0.83834
O91 O 0.70117 0.39507 0.58834
O92 O 0.82712 0.32266 0.83834
O93 O 0.89952 0.39507 0.48081
O94 O 0.27357 0.82266 0.73081
O95 O 0.20117 0.94861 0.48081
O96 O 0.82712 0.52102 0.73081
Zr1 Zr 0.55035 0.92184 0.53457
Zr2 Zr 0.80035 0.67184 0.28457
Zr3 Zr 0.55035 0.42184 0.53457
Zr4 Zr 0.30035 0.67184 0.28457
Zr5 Zr 0.55035 0.92184 0.03457
Zr6 Zr 0.30035 0.67184 0.78457
Zr7 Zr 0.55035 0.42184 0.03457
Zr8 Zr 0.80035 0.67184 0.78457
Zr9 Zr 0.05035 0.42184 0.03457
Zr10 Zr 0.05035 0.92184 0.03457
Zr11 Zr 0.80035 0.17184 0.28457
Zr12 Zr 0.30035 0.17184 0.28457
Zr13 Zr 0.30035 0.17184 0.78457
Zr14 Zr 0.80035 0.17184 0.78457
Zr15 Zr 0.05035 0.42184 0.53457
Zr16 Zr 0.05035 0.92184 0.53457
La1 La 0.67772 0.92184 0.28457
La2 La 0.80035 0.79921 0.03457
La3 La 0.42298 0.42184 0.28457
La4 La 0.30035 0.54447 0.03457
La5 La 0.92298 0.42184 0.28457
La6 La 0.80035 0.54447 0.53457
La7 La 0.17772 0.92184 0.28457
La8 La 0.30035 0.79921 0.53457
La9 La 0.42298 0.92184 0.78457
La10 La 0.80035 0.29921 0.03457
La11 La 0.67772 0.42184 0.78457
La12 La 0.30035 0.04447 0.03457
La13 La 0.17772 0.42184 0.78457
La14 La 0.30035 0.29921 0.53457
La15 La 0.92298 0.92184 0.78457
La16 La 0.80035 0.04447 0.53457
La17 La 0.55035 0.67184 0.65957
La18 La 0.05035 0.67184 0.40957
La19 La 0.55035 0.17184 0.90957
La20 La 0.05035 0.67184 0.90957
La21 La 0.55035 0.67184 0.15957
La22 La 0.55035 0.17184 0.40957
La23 La 0.05035 0.17184 0.15957
La24 La 0.05035 0.17184 0.65957
#End of li7la3zr2o12
