data_li7la3zr2o12
_cell_length_a                      13.23607
_cell_length_b                      13.23607
_cell_length_c                      12.701706
_cell_angle_alpha                   90.0
_cell_angle_beta                    90.0
_cell_angle_gamma                   90.0
_symmetry_space_group_name_H-M      P1
loop_
_space_group_symop_id
_space_group_symop_operation_xyz
1 x,y,z
loop_
_atom_site_label
_atom_site_type_symbol
_atom_site_fract_x
_atom_site_fract_y
_atom_site_fract_z
X1 X 0.69807 0.50975 0.46093
X2 X 0.69633 0.51313 0.46221
X3 X 0.69463 0.51659 0.46331
X4 X 0.69297 0.52012 0.46421
X5 X 0.69142 0.52377 0.46475
X6 X 0.68961 0.52883 0.46470
X7 X 0.68578 0.53017 0.46517
X8 X 0.68186 0.53066 0.46582
X9 X 0.67794 0.53096 0.46657
X10 X 0.67403 0.53115 0.46743
X11 X 0.67015 0.53125 0.46842
X12 X 0.66630 0.53130 0.46955
X13 X 0.66253 0.53128 0.47093
X14 X 0.65876 0.53127 0.47231
X15 X 0.65503 0.53123 0.47383
X16 X 0.65136 0.53117 0.47547
X17 X 0.64774 0.53111 0.47724
X18 X 0.64418 0.53105 0.47912
X19 X 0.64066 0.53100 0.48111
X20 X 0.63720 0.53097 0.48318
X21 X 0.63378 0.53095 0.48535
X22 X 0.63040 0.53096 0.48758
X23 X 0.62707 0.53101 0.48988
X24 X 0.62381 0.53114 0.49229
X25 X 0.62055 0.53127 0.49469
X26 X 0.61732 0.53146 0.49714
X27 X 0.61413 0.53170 0.49964
X28 X 0.61097 0.53201 0.50217
X29 X 0.60784 0.53240 0.50474
X30 X 0.60476 0.53286 0.50734
X31 X 0.60170 0.53341 0.50997
X32 X 0.59869 0.53404 0.51262
X33 X 0.59571 0.53478 0.51530
X34 X 0.59278 0.53562 0.51799
X35 X 0.58994 0.53666 0.52072
X36 X 0.58710 0.53770 0.52344
X37 X 0.58431 0.53884 0.52617
X38 X 0.58157 0.54010 0.52891
X39 X 0.57889 0.54147 0.53166
X40 X 0.57627 0.54294 0.53440
X41 X 0.57370 0.54452 0.53714
X42 X 0.57119 0.54619 0.53987
X43 X 0.56873 0.54796 0.54259
X44 X 0.56632 0.54981 0.54530
X45 X 0.56395 0.55173 0.54800
X46 X 0.56162 0.55372 0.55067
X47 X 0.55931 0.55574 0.55334
X48 X 0.55705 0.55786 0.55598
X49 X 0.55479 0.55997 0.55861
X50 X 0.55255 0.56216 0.56120
X51 X 0.55032 0.56437 0.56379
X52 X 0.54810 0.56659 0.56636
X53 X 0.54589 0.56886 0.56891
X54 X 0.54373 0.57116 0.57146
X55 X 0.54165 0.57353 0.57402
X56 X 0.53975 0.57604 0.57659
X57 X 0.53825 0.57877 0.57920
X58 X 0.53738 0.58180 0.58177
X59 X 0.53710 0.58507 0.58415
X60 X 0.53708 0.58848 0.58632
X61 X 0.53713 0.59202 0.58825
X62 X 0.53714 0.59563 0.59004
X63 X 0.53705 0.59930 0.59170
X64 X 0.53684 0.60300 0.59325
X65 X 0.53649 0.60674 0.59469
X66 X 0.53595 0.61049 0.59601
X67 X 0.53483 0.61590 0.59767
X68 X 0.53476 0.61524 0.59984
X69 X 0.53460 0.61403 0.60380
X70 X 0.53437 0.61266 0.60771
X71 X 0.53410 0.61118 0.61157
X72 X 0.53371 0.60951 0.61533
X73 X 0.53325 0.60773 0.61903
X74 X 0.53266 0.60577 0.62261
X75 X 0.53197 0.60372 0.62611
X76 X 0.53121 0.60160 0.62956
X77 X 0.53029 0.59938 0.63289
X78 X 0.52929 0.59712 0.63616
X79 X 0.52811 0.59479 0.63932
X80 X 0.52685 0.59245 0.64243
X81 X 0.52540 0.59007 0.64542
X82 X 0.52387 0.58769 0.64835
X83 X 0.52214 0.58529 0.65116
X84 X 0.52031 0.58289 0.65389
X85 X 0.51837 0.58049 0.65655
X86 X 0.51640 0.57809 0.65917
X87 X 0.51443 0.57569 0.66179
X88 X 0.51269 0.57327 0.66457
X89 X 0.51129 0.57085 0.66754
X90 X 0.51008 0.56844 0.67062
X91 X 0.50914 0.56605 0.67381
X92 X 0.50822 0.56366 0.67701
X93 X 0.50732 0.56128 0.68022
X94 X 0.50638 0.55889 0.68342
X95 X 0.50534 0.55649 0.68657
X96 X 0.50418 0.55409 0.68967
X97 X 0.50288 0.55168 0.69270
X98 X 0.50143 0.54926 0.69566
X99 X 0.49984 0.54685 0.69854
X100 X 0.49812 0.54444 0.70134
X101 X 0.49628 0.54204 0.70407
X102 X 0.49438 0.53965 0.70675
X103 X 0.49228 0.53728 0.70930
X104 X 0.49017 0.53491 0.71184
X105 X 0.48788 0.53256 0.71421
X106 X 0.48553 0.53019 0.71652
X107 X 0.48304 0.52781 0.71862
X108 X 0.48011 0.52542 0.71998
X109 X 0.47780 0.52432 0.71968
X110 X 0.47526 0.52378 0.71863
X111 X 0.47156 0.52321 0.71719
X112 X 0.46782 0.52271 0.71581
X113 X 0.46403 0.52227 0.71455
X114 X 0.46023 0.52184 0.71335
X115 X 0.45637 0.52137 0.71236
X116 X 0.45251 0.52090 0.71138
X117 X 0.44862 0.52036 0.71061
X118 X 0.44473 0.51978 0.70990
X119 X 0.44082 0.51917 0.70926
X120 X 0.43692 0.51849 0.70875
X121 X 0.43301 0.51777 0.70830
X122 X 0.42910 0.51699 0.70795
X123 X 0.42520 0.51615 0.70770
X124 X 0.42130 0.51526 0.70752
X125 X 0.41742 0.51433 0.70742
X126 X 0.41354 0.51335 0.70740
X127 X 0.40967 0.51234 0.70742
X128 X 0.40581 0.51132 0.70749
X129 X 0.40194 0.51031 0.70756
X130 X 0.39804 0.50942 0.70755
X131 X 0.39409 0.50888 0.70725
X132 X 0.39156 0.51046 0.70448
X133 X 0.38968 0.51223 0.70129
X134 X 0.38797 0.51396 0.69799
X135 X 0.38627 0.51566 0.69466
X136 X 0.38457 0.51733 0.69131
X137 X 0.38287 0.51896 0.68795
X138 X 0.38116 0.52054 0.68456
X139 X 0.37945 0.52213 0.68118
X140 X 0.37773 0.52363 0.67776
X141 X 0.37599 0.52504 0.67431
X142 X 0.37424 0.52637 0.67082
X143 X 0.37248 0.52756 0.66730
X144 X 0.37070 0.52860 0.66373
X145 X 0.36890 0.52941 0.66011
X146 X 0.36708 0.52995 0.65644
X147 X 0.36526 0.53013 0.65273
X148 X 0.36344 0.52991 0.64903
X149 X 0.36165 0.52929 0.64536
X150 X 0.35986 0.52866 0.64170
X151 X 0.35814 0.52738 0.63818
X152 X 0.35645 0.52587 0.63475
X153 X 0.35478 0.52422 0.63138
X154 X 0.35312 0.52250 0.62804
X155 X 0.35146 0.52072 0.62473
X156 X 0.34980 0.51892 0.62144
X157 X 0.34814 0.51711 0.61815
X158 X 0.34647 0.51529 0.61487
X159 X 0.34480 0.51347 0.61159
X160 X 0.34313 0.51166 0.60832
X161 X 0.34145 0.50986 0.60504
X162 X 0.33976 0.50807 0.60175
X163 X 0.33806 0.50630 0.59846
X164 X 0.33636 0.50455 0.59516
X165 X 0.33465 0.50282 0.59186
X166 X 0.33292 0.50112 0.58854
X167 X 0.33119 0.49945 0.58522
X168 X 0.32945 0.49781 0.58188
X169 X 0.32770 0.49621 0.57852
X170 X 0.32595 0.49465 0.57515
X171 X 0.32419 0.49314 0.57176
X172 X 0.32243 0.49162 0.56836
X173 X 0.32067 0.49021 0.56493
X174 X 0.31892 0.48886 0.56145
X175 X 0.31719 0.48757 0.55794
X176 X 0.31550 0.48637 0.55438
X177 X 0.31388 0.48526 0.55076
X178 X 0.31236 0.48425 0.54705
X179 X 0.31093 0.48331 0.54328
X180 X 0.30986 0.48261 0.53933
X181 X 0.30901 0.48202 0.53455
X182 X 0.30854 0.48242 0.53201
X183 X 0.30739 0.48370 0.52825
Li1 Li 0.69965 0.50937 0.46543
Li2 Li 0.28160 0.75235 0.21543
Li3 Li 0.53862 0.83430 0.46543
Li4 Li 0.95667 0.59132 0.21543
Li5 Li 0.69965 0.33430 0.35372
Li6 Li 0.78160 0.59132 0.10372
Li7 Li 0.53862 0.00937 0.35372
Li8 Li 0.45667 0.75235 0.10372
Li9 Li 0.03862 0.83430 0.35372
Li10 Li 0.45667 0.59132 0.60372
Li11 Li 0.19965 0.50937 0.35372
Li12 Li 0.78160 0.75235 0.60372
Li13 Li 0.53862 0.50937 0.96543
Li14 Li 0.45667 0.25235 0.21543
Li15 Li 0.69965 0.83430 0.96543
Li16 Li 0.78160 0.09132 0.21543
Li17 Li 0.19965 0.00937 0.96543
Li18 Li 0.78160 0.25235 0.71543
Li19 Li 0.03862 0.33430 0.96543
Li20 Li 0.45667 0.09132 0.71543
Li21 Li 0.19965 0.83430 0.85372
Li22 Li 0.28160 0.09132 0.60372
Li23 Li 0.03862 0.50937 0.85372
Li24 Li 0.95667 0.25235 0.60372
Li25 Li 0.53862 0.33430 0.85372
Li26 Li 0.95667 0.09132 0.10372
Li27 Li 0.69965 0.00937 0.85372
Li28 Li 0.28160 0.25235 0.10372
Li29 Li 0.03862 0.00937 0.46543
Li30 Li 0.95667 0.75235 0.71543
Li31 Li 0.19965 0.33430 0.46543
Li32 Li 0.28160 0.59132 0.71543
Li33 Li 0.80035 0.85305 0.78457
Li34 Li 0.93793 0.85305 0.53457
Li35 Li 0.43793 0.49063 0.78457
Li36 Li 0.30035 0.49063 0.53457
Li37 Li 0.80035 0.99063 0.03457
Li38 Li 0.43793 0.35305 0.03457
Li39 Li 0.93793 0.49063 0.03457
Li40 Li 0.80035 0.49063 0.28457
Li41 Li 0.30035 0.85305 0.03457
Li42 Li 0.43793 0.85305 0.28457
Li43 Li 0.80035 0.35305 0.53457
Li44 Li 0.43793 0.99063 0.53457
Li45 Li 0.30035 0.35305 0.28457
Li46 Li 0.93793 0.99063 0.28457
Li47 Li 0.30035 0.99063 0.78457
Li48 Li 0.93793 0.35305 0.78457
Li49 Li 0.61914 0.67184 0.53457
Li50 Li 0.11914 0.67184 0.28457
Li51 Li 0.61914 0.17184 0.28457
Li52 Li 0.61914 0.67184 0.03457
Li53 Li 0.11914 0.17184 0.03457
Li54 Li 0.61914 0.17184 0.78457
Li55 Li 0.11914 0.67184 0.78457
Li56 Li 0.11914 0.17184 0.53457
O1 O 0.65375 0.86636 0.81328
O2 O 0.92462 0.70645 0.56328
O3 O 0.58452 0.47732 0.81328
O4 O 0.31365 0.63722 0.56328
O5 O 0.65375 0.97732 0.00587
O6 O 0.42462 0.63722 0.75587
O7 O 0.58452 0.36636 0.00587
O8 O 0.81365 0.70645 0.75587
O9 O 0.08452 0.47732 0.00587
O10 O 0.81365 0.63722 0.25587
O11 O 0.15375 0.86636 0.00587
O12 O 0.42462 0.70645 0.25587
O13 O 0.58452 0.86636 0.31328
O14 O 0.81365 0.20645 0.56328
O15 O 0.65375 0.47732 0.31328
O16 O 0.42462 0.13722 0.56328
O17 O 0.15375 0.36636 0.31328
O18 O 0.42462 0.20645 0.06328
O19 O 0.08452 0.97732 0.31328
O20 O 0.81365 0.13722 0.06328
O21 O 0.15375 0.47732 0.50587
O22 O 0.92462 0.13722 0.25587
O23 O 0.08452 0.86636 0.50587
O24 O 0.31365 0.20645 0.25587
O25 O 0.58452 0.97732 0.50587
O26 O 0.31365 0.13722 0.75587
O27 O 0.65375 0.36636 0.50587
O28 O 0.92462 0.20645 0.75587
O29 O 0.08452 0.36636 0.81328
O30 O 0.31365 0.70645 0.06328
O31 O 0.15375 0.97732 0.81328
O32 O 0.92462 0.63722 0.06328
O33 O 0.67410 0.06940 0.69390
O34 O 0.72158 0.72680 0.44390
O35 O 0.56417 0.27428 0.69390
O36 O 0.51669 0.61688 0.44390
O37 O 0.67410 0.77428 0.12524
O38 O 0.22158 0.61688 0.87524
O39 O 0.56417 0.56940 0.12524
O40 O 0.01669 0.72680 0.87524
O41 O 0.06417 0.27428 0.12524
O42 O 0.01669 0.61688 0.37524
O43 O 0.17410 0.06940 0.12524
O44 O 0.22158 0.72680 0.37524
O45 O 0.56417 0.06940 0.19390
O46 O 0.01669 0.22680 0.44390
O47 O 0.67410 0.27428 0.19390
O48 O 0.22158 0.11688 0.44390
O49 O 0.17410 0.56940 0.19390
O50 O 0.22158 0.22680 0.94390
O51 O 0.06417 0.77428 0.19390
O52 O 0.01669 0.11688 0.94390
O53 O 0.17410 0.27428 0.62524
O54 O 0.72158 0.11688 0.37524
O55 O 0.06417 0.06940 0.62524
O56 O 0.51669 0.22680 0.37524
O57 O 0.56417 0.77428 0.62524
O58 O 0.51669 0.11688 0.87524
O59 O 0.67410 0.56940 0.62524
O60 O 0.72158 0.22680 0.87524
O61 O 0.06417 0.56940 0.69390
O62 O 0.51669 0.72680 0.94390
O63 O 0.17410 0.77428 0.69390
O64 O 0.72158 0.61688 0.94390
O65 O 0.76996 0.89507 0.60581
O66 O 0.89591 0.82266 0.35581
O67 O 0.46831 0.44861 0.60581
O68 O 0.34236 0.52102 0.35581
O69 O 0.76996 0.94861 0.21334
O70 O 0.39591 0.52102 0.96334
O71 O 0.46831 0.39507 0.21334
O72 O 0.84236 0.82266 0.96334
O73 O 0.96831 0.44861 0.21334
O74 O 0.84236 0.52102 0.46334
O75 O 0.26996 0.89507 0.21334
O76 O 0.39591 0.82266 0.46334
O77 O 0.46831 0.89507 0.10581
O78 O 0.84236 0.32266 0.35581
O79 O 0.76996 0.44861 0.10581
O80 O 0.39591 0.02102 0.35581
O81 O 0.26996 0.39507 0.10581
O82 O 0.39591 0.32266 0.85581
O83 O 0.96831 0.94861 0.10581
O84 O 0.84236 0.02102 0.85581
O85 O 0.26996 0.44861 0.71334
O86 O 0.89591 0.02102 0.46334
O87 O 0.96831 0.89507 0.71334
O88 O 0.34236 0.32266 0.46334
O89 O 0.46831 0.94861 0.71334
O90 O 0.34236 0.02102 0.96334
O91 O 0.76996 0.39507 0.71334
O92 O 0.89591 0.32266 0.96334
O93 O 0.96831 0.39507 0.60581
O94 O 0.34236 0.82266 0.85581
O95 O 0.26996 0.94861 0.60581
O96 O 0.89591 0.52102 0.85581
Zr1 Zr 0.61914 0.92184 0.65957
Zr2 Zr 0.86914 0.67184 0.40957
Zr3 Zr 0.61914 0.42184 0.65957
Zr4 Zr 0.36914 0.67184 0.40957
Zr5 Zr 0.61914 0.92184 0.15957
Zr6 Zr 0.36914 0.67184 0.90957
Zr7 Zr 0.61914 0.42184 0.15957
Zr8 Zr 0.86914 0.67184 0.90957
Zr9 Zr 0.11914 0.42184 0.15957
Zr10 Zr 0.11914 0.92184 0.15957
Zr11 Zr 0.86914 0.17184 0.40957
Zr12 Zr 0.36914 0.17184 0.40957
Zr13 Zr 0.36914 0.17184 0.90957
Zr14 Zr 0.86914 0.17184 0.90957
Zr15 Zr 0.11914 0.42184 0.65957
Zr16 Zr 0.11914 0.92184 0.65957
La1 La 0.74651 0.92184 0.40957
La2 La 0.86914 0.79921 0.15957
La3 La 0.49177 0.42184 0.40957
La4 La 0.36914 0.54447 0.15957
La5 La 0.99177 0.42184 0.40957
La6 La 0.86914 0.54447 0.65957
La7 La 0.24651 0.92184 0.40957
La8 La 0.36914 0.79921 0.65957
La9 La 0.49177 0.92184 0.90957
La10 La 0.86914 0.29921 0.15957
La11 La 0.74651 0.42184 0.90957
La12 La 0.36914 0.04447 0.15957
La13 La 0.24651 0.42184 0.90957
La14 La 0.36914 0.29921 0.65957
La15 La 0.99177 0.92184 0.90957
La16 La 0.86914 0.04447 0.65957
La17 La 0.61914 0.67184 0.78457
La18 La 0.11914 0.67184 0.53457
La19 La 0.61914 0.17184 0.03457
La20 La 0.11914 0.67184 0.03457
La21 La 0.61914 0.67184 0.28457
La22 La 0.61914 0.17184 0.53457
La23 La 0.11914 0.17184 0.28457
La24 La 0.11914 0.17184 0.78457
#End of li7la3zr2o12
