data_findsym-output
_cell_length_a                      10.279498
_cell_length_b                      10.279498
_cell_length_c                      10.279498
_cell_angle_alpha                   90.0
_cell_angle_beta                    90.0
_cell_angle_gamma                   90.0
_symmetry_space_group_name_H-M      P1
loop_
_space_group_symop_id
_space_group_symop_operation_xyz
1 x,y,z
loop_
_atom_site_label
_atom_site_type_symbol
_atom_site_fract_x
_atom_site_fract_y
_atom_site_fract_z
X1 X 0.38038 0.50271 0.61390
X2 X 0.38047 0.49913 0.61020
X3 X 0.38055 0.49555 0.60650
X4 X 0.38062 0.49198 0.60279
X5 X 0.38068 0.48842 0.59907
X6 X 0.38073 0.48487 0.59535
X7 X 0.38077 0.48132 0.59162
X8 X 0.38080 0.47778 0.58788
X9 X 0.38083 0.47425 0.58414
X10 X 0.38084 0.47073 0.58038
X11 X 0.38084 0.46723 0.57660
X12 X 0.38084 0.46374 0.57281
X13 X 0.38084 0.46028 0.56901
X14 X 0.38083 0.45683 0.56518
X15 X 0.38082 0.45341 0.56134
X16 X 0.38080 0.45002 0.55746
X17 X 0.38080 0.44667 0.55355
X18 X 0.38080 0.44337 0.54960
X19 X 0.38083 0.44015 0.54559
X20 X 0.38086 0.43692 0.54158
X21 X 0.38099 0.43392 0.53739
X22 X 0.38127 0.43121 0.53303
X23 X 0.38192 0.42917 0.52835
X24 X 0.38400 0.42975 0.52342
X25 X 0.38681 0.43177 0.51895
X26 X 0.38936 0.43356 0.51486
X27 X 0.39191 0.43534 0.51075
X28 X 0.39445 0.43710 0.50664
X29 X 0.39700 0.43883 0.50251
X30 X 0.39955 0.44055 0.49838
X31 X 0.40210 0.44226 0.49425
X32 X 0.40467 0.44393 0.49011
X33 X 0.40724 0.44559 0.48598
X34 X 0.40982 0.44724 0.48184
X35 X 0.41245 0.44880 0.47770
X36 X 0.41508 0.45036 0.47356
X37 X 0.41779 0.45182 0.46943
X38 X 0.42052 0.45323 0.46530
X39 X 0.42333 0.45453 0.46119
X40 X 0.42621 0.45574 0.45710
X41 X 0.42922 0.45677 0.45305
X42 X 0.43234 0.45764 0.44905
X43 X 0.43565 0.45822 0.44514
X44 X 0.44022 0.45855 0.44022
X45 X 0.44514 0.45822 0.43565
X46 X 0.44905 0.45764 0.43234
X47 X 0.45305 0.45677 0.42922
X48 X 0.45710 0.45574 0.42621
X49 X 0.46119 0.45453 0.42333
X50 X 0.46530 0.45323 0.42052
X51 X 0.46943 0.45182 0.41779
X52 X 0.47356 0.45036 0.41508
X53 X 0.47770 0.44880 0.41245
X54 X 0.48184 0.44724 0.40982
X55 X 0.48598 0.44559 0.40724
X56 X 0.49011 0.44393 0.40467
X57 X 0.49425 0.44226 0.40210
X58 X 0.49838 0.44055 0.39955
X59 X 0.50251 0.43883 0.39700
X60 X 0.50664 0.43710 0.39445
X61 X 0.51075 0.43534 0.39191
X62 X 0.51486 0.43356 0.38936
X63 X 0.51895 0.43177 0.38681
X64 X 0.52342 0.42975 0.38400
X65 X 0.52835 0.42917 0.38192
X66 X 0.53303 0.43121 0.38127
X67 X 0.53739 0.43392 0.38099
X68 X 0.54158 0.43692 0.38086
X69 X 0.54559 0.44015 0.38083
X70 X 0.54960 0.44337 0.38080
X71 X 0.55355 0.44667 0.38080
X72 X 0.55746 0.45002 0.38080
X73 X 0.56134 0.45341 0.38082
X74 X 0.56518 0.45683 0.38083
X75 X 0.56901 0.46028 0.38084
X76 X 0.57281 0.46374 0.38084
X77 X 0.57660 0.46723 0.38084
X78 X 0.58038 0.47073 0.38084
X79 X 0.58414 0.47425 0.38083
X80 X 0.58788 0.47778 0.38080
X81 X 0.59162 0.48132 0.38077
X82 X 0.59535 0.48487 0.38073
X83 X 0.59907 0.48842 0.38068
X84 X 0.60279 0.49198 0.38062
X85 X 0.60650 0.49555 0.38055
X86 X 0.61020 0.49913 0.38047
X87 X 0.61390 0.50271 0.38038
Li1 Li 0.38656 0.50000 0.61345
Li2 Li 0.38656 0.00000 0.11345
Li3 Li 0.34034 0.50000 0.11345
Li4 Li 0.34034 0.00000 0.61345
Li5 Li 0.61345 0.50000 0.38656
Li6 Li 0.61345 0.00000 0.34034
Li7 Li 0.11345 0.50000 0.34034
Li8 Li 0.11345 0.00000 0.38656
Li9 Li 0.61345 0.27311 0.61345
Li10 Li 0.61345 0.22689 0.11345
Li11 Li 0.11345 0.27311 0.11345
Li12 Li 0.11345 0.22689 0.61345
Li13 Li 0.61345 0.00000 0.88655
Li14 Li 0.61345 0.50000 0.84034
Li15 Li 0.11345 0.00000 0.84034
Li16 Li 0.11345 0.50000 0.88655
Li17 Li 0.61345 0.77311 0.11345
Li18 Li 0.61345 0.72689 0.61345
Li19 Li 0.11345 0.77311 0.61345
Li20 Li 0.11345 0.72689 0.11345
Li21 Li 0.88655 0.50000 0.11345
Li22 Li 0.88655 0.00000 0.61345
Li23 Li 0.84034 0.50000 0.61345
Li24 Li 0.84034 0.00000 0.11345
P1 P 0.86345 0.75000 0.86345
P2 P 0.86345 0.25000 0.36345
P3 P 0.36345 0.75000 0.36345
P4 P 0.36345 0.25000 0.86345
S1 S 0.97896 0.86552 0.97896
S2 S 0.97896 0.63448 0.74793
S3 S 0.74793 0.86552 0.74793
S4 S 0.74793 0.63448 0.97896
S5 S 0.97896 0.36552 0.47897
S6 S 0.97896 0.13448 0.24792
S7 S 0.74793 0.36552 0.24792
S8 S 0.74793 0.13448 0.47897
S9 S 0.47897 0.86552 0.47897
S10 S 0.47897 0.63448 0.24792
S11 S 0.24792 0.86552 0.24792
S12 S 0.24792 0.63448 0.47897
S13 S 0.47897 0.36552 0.97896
S14 S 0.47897 0.13448 0.74793
S15 S 0.24792 0.36552 0.74793
S16 S 0.24792 0.13448 0.97896
S17 S 0.61345 0.50000 0.61345
S18 S 0.61345 0.00000 0.11345
S19 S 0.11345 0.50000 0.11345
S20 S 0.11345 0.00000 0.61345
Cl1 Cl 0.36345 0.25000 0.36345
Cl2 Cl 0.36345 0.75000 0.86345
Cl3 Cl 0.86345 0.25000 0.86345
Cl4 Cl 0.86345 0.75000 0.36345
#End of findsym-output
