data_findsym-output
_cell_length_a                      10.279498
_cell_length_b                      10.279498
_cell_length_c                      10.279498
_cell_angle_alpha                   90.0
_cell_angle_beta                    90.0
_cell_angle_gamma                   90.0
_symmetry_space_group_name_H-M      P1
loop_
_space_group_symop_id
_space_group_symop_operation_xyz
1 x,y,z
loop_
_atom_site_label
_atom_site_type_symbol
_atom_site_fract_x
_atom_site_fract_y
_atom_site_fract_z
X1 X 0.62780 0.49863 0.63440
X2 X 0.62773 0.49502 0.63074
X3 X 0.62764 0.49140 0.62707
X4 X 0.62752 0.48779 0.62341
X5 X 0.62737 0.48418 0.61974
X6 X 0.62720 0.48057 0.61607
X7 X 0.62698 0.47697 0.61240
X8 X 0.62673 0.47337 0.60873
X9 X 0.62644 0.46978 0.60505
X10 X 0.62616 0.46619 0.60137
X11 X 0.62579 0.46261 0.59769
X12 X 0.62537 0.45904 0.59400
X13 X 0.62489 0.45549 0.59031
X14 X 0.62435 0.45194 0.58661
X15 X 0.62375 0.44842 0.58291
X16 X 0.62306 0.44492 0.57920
X17 X 0.62227 0.44144 0.57549
X18 X 0.62135 0.43800 0.57177
X19 X 0.62028 0.43462 0.56804
X20 X 0.61916 0.43125 0.56431
X21 X 0.61758 0.42808 0.56058
X22 X 0.61558 0.42510 0.55688
X23 X 0.61181 0.42277 0.55331
X24 X 0.60739 0.42154 0.55156
X25 X 0.60267 0.42033 0.54988
X26 X 0.59790 0.41920 0.54831
X27 X 0.59311 0.41810 0.54677
X28 X 0.58831 0.41704 0.54525
X29 X 0.58349 0.41601 0.54375
X30 X 0.57867 0.41501 0.54224
X31 X 0.57385 0.41404 0.54073
X32 X 0.56903 0.41309 0.53920
X33 X 0.56421 0.41217 0.53764
X34 X 0.55941 0.41129 0.53601
X35 X 0.55460 0.41042 0.53437
X36 X 0.54981 0.40958 0.53269
X37 X 0.54503 0.40877 0.53096
X38 X 0.54027 0.40800 0.52915
X39 X 0.53554 0.40726 0.52726
X40 X 0.53083 0.40655 0.52532
X41 X 0.52618 0.40592 0.52321
X42 X 0.52157 0.40533 0.52099
X43 X 0.51702 0.40479 0.51863
X44 X 0.51258 0.40434 0.51608
X45 X 0.50825 0.40398 0.51331
X46 X 0.50406 0.40369 0.51034
X47 X 0.49996 0.40346 0.50723
X48 X 0.49632 0.40346 0.50359
X49 X 0.49269 0.40346 0.49994
X50 X 0.48959 0.40369 0.49584
X51 X 0.48661 0.40398 0.49165
X52 X 0.48386 0.40435 0.48731
X53 X 0.48134 0.40481 0.48285
X54 X 0.47898 0.40535 0.47831
X55 X 0.47673 0.40593 0.47371
X56 X 0.47467 0.40659 0.46904
X57 X 0.47268 0.40727 0.46434
X58 X 0.47079 0.40801 0.45961
X59 X 0.46899 0.40879 0.45485
X60 X 0.46725 0.40960 0.45007
X61 X 0.46558 0.41044 0.44528
X62 X 0.46395 0.41131 0.44048
X63 X 0.46236 0.41221 0.43566
X64 X 0.46080 0.41314 0.43084
X65 X 0.45924 0.41406 0.42603
X66 X 0.45772 0.41503 0.42120
X67 X 0.45622 0.41603 0.41638
X68 X 0.45472 0.41706 0.41157
X69 X 0.45320 0.41812 0.40676
X70 X 0.45166 0.41922 0.40198
X71 X 0.45007 0.42037 0.39722
X72 X 0.44841 0.42156 0.39249
X73 X 0.44670 0.42277 0.38818
X74 X 0.44312 0.42511 0.38442
X75 X 0.43943 0.42808 0.38242
X76 X 0.43570 0.43126 0.38083
X77 X 0.43197 0.43462 0.37972
X78 X 0.42824 0.43800 0.37864
X79 X 0.42452 0.44144 0.37773
X80 X 0.42080 0.44492 0.37694
X81 X 0.41709 0.44842 0.37625
X82 X 0.41339 0.45195 0.37564
X83 X 0.40970 0.45549 0.37510
X84 X 0.40600 0.45904 0.37463
X85 X 0.40232 0.46261 0.37421
X86 X 0.39863 0.46619 0.37384
X87 X 0.39496 0.46978 0.37355
X88 X 0.39128 0.47337 0.37326
X89 X 0.38760 0.47697 0.37301
X90 X 0.38393 0.48057 0.37280
X91 X 0.38026 0.48418 0.37262
X92 X 0.37660 0.48779 0.37248
X93 X 0.37293 0.49140 0.37236
X94 X 0.36927 0.49502 0.37227
X95 X 0.36561 0.49864 0.37220
Li1 Li 0.63655 0.50000 0.63655
Li2 Li 0.63655 0.00000 0.13655
Li3 Li 0.59034 0.50000 0.13655
Li4 Li 0.59034 0.00000 0.63655
Li5 Li 0.86345 0.50000 0.40967
Li6 Li 0.86345 0.00000 0.36345
Li7 Li 0.36345 0.50000 0.36345
Li8 Li 0.36345 0.00000 0.40967
Li9 Li 0.86345 0.27311 0.63655
Li10 Li 0.86345 0.22689 0.13655
Li11 Li 0.36345 0.27311 0.13655
Li12 Li 0.36345 0.22689 0.63655
Li13 Li 0.86345 0.00000 0.90966
Li14 Li 0.86345 0.50000 0.86345
Li15 Li 0.36345 0.00000 0.86345
Li16 Li 0.36345 0.50000 0.90966
Li17 Li 0.86345 0.77311 0.13655
Li18 Li 0.86345 0.72689 0.63655
Li19 Li 0.36345 0.77311 0.63655
Li20 Li 0.36345 0.72689 0.13655
Li21 Li 0.13655 0.50000 0.13655
Li22 Li 0.13655 0.00000 0.63655
Li23 Li 0.09034 0.50000 0.63655
Li24 Li 0.09034 0.00000 0.13655
P1 P 0.11345 0.75000 0.88655
P2 P 0.11345 0.25000 0.38655
P3 P 0.61345 0.75000 0.38655
P4 P 0.61345 0.25000 0.88655
S1 S 0.22897 0.86552 0.00208
S2 S 0.22897 0.63448 0.77104
S3 S 0.99793 0.86552 0.77104
S4 S 0.99793 0.63448 0.00208
S5 S 0.22897 0.36552 0.50208
S6 S 0.22897 0.13448 0.27103
S7 S 0.99793 0.36552 0.27103
S8 S 0.99793 0.13448 0.50208
S9 S 0.72897 0.86552 0.50208
S10 S 0.72897 0.63448 0.27103
S11 S 0.49792 0.86552 0.27103
S12 S 0.49792 0.63448 0.50208
S13 S 0.72897 0.36552 0.00208
S14 S 0.72897 0.13448 0.77104
S15 S 0.49792 0.36552 0.77104
S16 S 0.49792 0.13448 0.00208
S17 S 0.86345 0.50000 0.63655
S18 S 0.86345 0.00000 0.13655
S19 S 0.36345 0.50000 0.13655
S20 S 0.36345 0.00000 0.63655
Cl1 Cl 0.61345 0.25000 0.38655
Cl2 Cl 0.61345 0.75000 0.88655
Cl3 Cl 0.11345 0.25000 0.88655
Cl4 Cl 0.11345 0.75000 0.38655
#End of findsym-output
