data_findsym-output
_cell_length_a                      10.279498
_cell_length_b                      10.279498
_cell_length_c                      10.279498
_cell_angle_alpha                   90.0
_cell_angle_beta                    90.0
_cell_angle_gamma                   90.0
_symmetry_space_group_name_H-M      P1
loop_
_space_group_symop_id
_space_group_symop_operation_xyz
1 x,y,z
loop_
_atom_site_label
_atom_site_type_symbol
_atom_site_fract_x
_atom_site_fract_y
_atom_site_fract_z
X1 X 0.26742 0.49651 0.50349
X2 X 0.26526 0.49981 0.50019
X3 X 0.26518 0.49636 0.49636
X4 X 0.26513 0.49272 0.49272
X5 X 0.26506 0.48908 0.48908
X6 X 0.26498 0.48544 0.48544
X7 X 0.26487 0.48180 0.48180
X8 X 0.26473 0.47816 0.47816
X9 X 0.26457 0.47452 0.47452
X10 X 0.26437 0.47089 0.47089
X11 X 0.26415 0.46725 0.46725
X12 X 0.26392 0.46361 0.46361
X13 X 0.26363 0.45998 0.45998
X14 X 0.26330 0.45635 0.45635
X15 X 0.26293 0.45272 0.45272
X16 X 0.26250 0.44909 0.44909
X17 X 0.26202 0.44546 0.44546
X18 X 0.26148 0.44184 0.44184
X19 X 0.26086 0.43823 0.43823
X20 X 0.26014 0.43463 0.43463
X21 X 0.25937 0.43103 0.43103
X22 X 0.25833 0.42746 0.42746
X23 X 0.25585 0.42234 0.42234
X24 X 0.25931 0.42134 0.42134
X25 X 0.26378 0.41954 0.41954
X26 X 0.26815 0.41761 0.41761
X27 X 0.27251 0.41568 0.41568
X28 X 0.27685 0.41372 0.41372
X29 X 0.28116 0.41173 0.41173
X30 X 0.28547 0.40973 0.40973
X31 X 0.28976 0.40772 0.40772
X32 X 0.29404 0.40570 0.40570
X33 X 0.29831 0.40367 0.40367
X34 X 0.30257 0.40163 0.40163
X35 X 0.30682 0.39958 0.39958
X36 X 0.31107 0.39751 0.39751
X37 X 0.31528 0.39543 0.39543
X38 X 0.31950 0.39334 0.39334
X39 X 0.32371 0.39124 0.39124
X40 X 0.32791 0.38913 0.38913
X41 X 0.33209 0.38701 0.38701
X42 X 0.33626 0.38487 0.38487
X43 X 0.34041 0.38272 0.38272
X44 X 0.34454 0.38056 0.38056
X45 X 0.34866 0.37837 0.37837
X46 X 0.35277 0.37617 0.37617
X47 X 0.35685 0.37395 0.37395
X48 X 0.36089 0.37170 0.37170
X49 X 0.36493 0.36944 0.36944
X50 X 0.36894 0.36716 0.36716
X51 X 0.37293 0.36486 0.36486
X52 X 0.37689 0.36254 0.36254
X53 X 0.38082 0.36019 0.36019
X54 X 0.38472 0.35781 0.35781
X55 X 0.38858 0.35540 0.35540
X56 X 0.39241 0.35297 0.35297
X57 X 0.39620 0.35050 0.35050
X58 X 0.39994 0.34800 0.34800
X59 X 0.40366 0.34549 0.34549
X60 X 0.40727 0.34289 0.34289
X61 X 0.41088 0.34030 0.34030
X62 X 0.41438 0.33763 0.33763
X63 X 0.41782 0.33492 0.33492
X64 X 0.42121 0.33218 0.33218
X65 X 0.42451 0.32939 0.32939
X66 X 0.42776 0.32656 0.32656
X67 X 0.43090 0.32368 0.32368
X68 X 0.43394 0.32074 0.32074
X69 X 0.43686 0.31774 0.31774
X70 X 0.43966 0.31469 0.31469
X71 X 0.44232 0.31157 0.31157
X72 X 0.44482 0.30839 0.30839
X73 X 0.44715 0.30515 0.30515
X74 X 0.44929 0.30183 0.30183
X75 X 0.45127 0.29847 0.29847
X76 X 0.45295 0.29503 0.29503
X77 X 0.45446 0.29155 0.29155
X78 X 0.45576 0.28803 0.28803
X79 X 0.45674 0.28446 0.28446
X80 X 0.45763 0.28087 0.28087
X81 X 0.45836 0.27727 0.27727
X82 X 0.45893 0.27365 0.27365
X83 X 0.45939 0.27003 0.27003
X84 X 0.45975 0.26639 0.26639
X85 X 0.46004 0.26276 0.26276
X86 X 0.46032 0.25771 0.25771
X87 X 0.46021 0.26004 0.26004
X88 X 0.45998 0.26368 0.26368
X89 X 0.45967 0.26731 0.26731
X90 X 0.45930 0.27094 0.27094
X91 X 0.45882 0.27457 0.27457
X92 X 0.45818 0.27818 0.27818
X93 X 0.45747 0.28179 0.28179
X94 X 0.45663 0.28538 0.28538
X95 X 0.45575 0.28896 0.28896
X96 X 0.45554 0.29260 0.29260
X97 X 0.45597 0.29623 0.29623
X98 X 0.45786 0.29961 0.29961
X99 X 0.46098 0.30251 0.30251
X100 X 0.46442 0.30522 0.30522
X101 X 0.46827 0.30764 0.30764
X102 X 0.47221 0.30998 0.30998
X103 X 0.47626 0.31222 0.31222
X104 X 0.48038 0.31440 0.31440
X105 X 0.48456 0.31653 0.31653
X106 X 0.48878 0.31862 0.31862
X107 X 0.49305 0.32065 0.32065
X108 X 0.49732 0.32268 0.32268
X109 X 0.50162 0.32469 0.32469
X110 X 0.50594 0.32667 0.32667
X111 X 0.51028 0.32863 0.32863
X112 X 0.51463 0.33056 0.33056
X113 X 0.51901 0.33249 0.33249
X114 X 0.52339 0.33439 0.33439
X115 X 0.52779 0.33628 0.33628
X116 X 0.53220 0.33816 0.33816
X117 X 0.53662 0.34003 0.34003
X118 X 0.54105 0.34188 0.34188
X119 X 0.54548 0.34374 0.34374
X120 X 0.54991 0.34559 0.34559
X121 X 0.55434 0.34744 0.34744
X122 X 0.55877 0.34929 0.34929
X123 X 0.56320 0.35115 0.35115
X124 X 0.56763 0.35300 0.35300
X125 X 0.57205 0.35488 0.35488
X126 X 0.57646 0.35675 0.35675
X127 X 0.58085 0.35865 0.35865
X128 X 0.58523 0.36056 0.36056
X129 X 0.58960 0.36249 0.36249
X130 X 0.59395 0.36444 0.36444
X131 X 0.59828 0.36641 0.36641
X132 X 0.60258 0.36840 0.36840
X133 X 0.60686 0.37042 0.37042
X134 X 0.61112 0.37248 0.37248
X135 X 0.61533 0.37456 0.37456
X136 X 0.61951 0.37669 0.37669
X137 X 0.62369 0.37882 0.37882
X138 X 0.62778 0.38103 0.38103
X139 X 0.63181 0.38329 0.38329
X140 X 0.63576 0.38562 0.38562
X141 X 0.63964 0.38802 0.38802
X142 X 0.64341 0.39050 0.39050
X143 X 0.64707 0.39306 0.39306
X144 X 0.65059 0.39571 0.39571
X145 X 0.65398 0.39845 0.39845
X146 X 0.65722 0.40128 0.40128
X147 X 0.66031 0.40419 0.40419
X148 X 0.66327 0.40717 0.40717
X149 X 0.66611 0.41021 0.41021
X150 X 0.66885 0.41329 0.41329
X151 X 0.67151 0.41641 0.41641
X152 X 0.67410 0.41955 0.41955
X153 X 0.67665 0.42271 0.42271
X154 X 0.67916 0.42589 0.42589
X155 X 0.68164 0.42908 0.42908
X156 X 0.68410 0.43228 0.43228
X157 X 0.68654 0.43548 0.43548
X158 X 0.68899 0.43869 0.43869
X159 X 0.69141 0.44190 0.44190
X160 X 0.69382 0.44511 0.44511
X161 X 0.69624 0.44833 0.44833
X162 X 0.69865 0.45154 0.45154
X163 X 0.70107 0.45476 0.45476
X164 X 0.70348 0.45797 0.45797
X165 X 0.70590 0.46118 0.46118
X166 X 0.70833 0.46440 0.46440
X167 X 0.71075 0.46761 0.46761
X168 X 0.71318 0.47082 0.47082
X169 X 0.71562 0.47402 0.47402
X170 X 0.71805 0.47723 0.47723
X171 X 0.72050 0.48043 0.48043
X172 X 0.72294 0.48364 0.48364
X173 X 0.72538 0.48684 0.48684
X174 X 0.72781 0.49005 0.49005
X175 X 0.73021 0.49327 0.49327
X176 X 0.73258 0.49651 0.49651
Li1 Li 0.27311 0.50000 0.50000
Li2 Li 0.27311 0.00000 0.00000
Li3 Li 0.22689 0.50000 0.00000
Li4 Li 0.22689 0.00000 0.50000
Li5 Li 0.50000 0.50000 0.27311
Li6 Li 0.50000 0.00000 0.22689
Li7 Li 0.00000 0.50000 0.22689
Li8 Li 0.00000 0.00000 0.27311
Li9 Li 0.50000 0.27311 0.50000
Li10 Li 0.50000 0.22689 0.00000
Li11 Li 0.00000 0.27311 0.00000
Li12 Li 0.00000 0.22689 0.50000
Li13 Li 0.50000 0.00000 0.77311
Li14 Li 0.50000 0.50000 0.72689
Li15 Li 0.00000 0.00000 0.72689
Li16 Li 0.00000 0.50000 0.77311
Li17 Li 0.50000 0.77311 0.00000
Li18 Li 0.50000 0.72689 0.50000
Li19 Li 0.00000 0.77311 0.50000
Li20 Li 0.00000 0.72689 0.00000
Li21 Li 0.77311 0.50000 0.00000
Li22 Li 0.77311 0.00000 0.50000
Li23 Li 0.72689 0.50000 0.50000
Li24 Li 0.72689 0.00000 0.00000
P1 P 0.75000 0.75000 0.75000
P2 P 0.75000 0.25000 0.25000
P3 P 0.25000 0.75000 0.25000
P4 P 0.25000 0.25000 0.75000
S1 S 0.86552 0.86552 0.86552
S2 S 0.86552 0.63448 0.63448
S3 S 0.63448 0.86552 0.63448
S4 S 0.63448 0.63448 0.86552
S5 S 0.86552 0.36552 0.36552
S6 S 0.86552 0.13448 0.13448
S7 S 0.63448 0.36552 0.13448
S8 S 0.63448 0.13448 0.36552
S9 S 0.36552 0.86552 0.36552
S10 S 0.36552 0.63448 0.13448
S11 S 0.13448 0.86552 0.13448
S12 S 0.13448 0.63448 0.36552
S13 S 0.36552 0.36552 0.86552
S14 S 0.36552 0.13448 0.63448
S15 S 0.13448 0.36552 0.63448
S16 S 0.13448 0.13448 0.86552
S17 S 0.50000 0.50000 0.50000
S18 S 0.50000 0.00000 0.00000
S19 S 0.00000 0.50000 0.00000
S20 S 0.00000 0.00000 0.50000
Cl1 Cl 0.25000 0.25000 0.25000
Cl2 Cl 0.25000 0.75000 0.75000
Cl3 Cl 0.75000 0.25000 0.75000
Cl4 Cl 0.75000 0.75000 0.25000
#End of findsym-output
