data_findsym-output
_cell_length_a                      10.279498
_cell_length_b                      10.279498
_cell_length_c                      10.279498
_cell_angle_alpha                   90.0
_cell_angle_beta                    90.0
_cell_angle_gamma                   90.0
_symmetry_space_group_name_H-M      P1
loop_
_space_group_symop_id
_space_group_symop_operation_xyz
1 x,y,z
loop_
_atom_site_label
_atom_site_type_symbol
_atom_site_fract_x
_atom_site_fract_y
_atom_site_fract_z
X1 X 0.51501 0.50000 0.75000
X2 X 0.51501 0.49637 0.74635
X3 X 0.51496 0.49273 0.74271
X4 X 0.51490 0.48910 0.73906
X5 X 0.51481 0.48547 0.73541
X6 X 0.51470 0.48184 0.73177
X7 X 0.51456 0.47821 0.72812
X8 X 0.51439 0.47458 0.72447
X9 X 0.51420 0.47095 0.72082
X10 X 0.51397 0.46732 0.71718
X11 X 0.51374 0.46370 0.71353
X12 X 0.51345 0.46008 0.70988
X13 X 0.51311 0.45646 0.70623
X14 X 0.51273 0.45285 0.70259
X15 X 0.51231 0.44924 0.69894
X16 X 0.51183 0.44564 0.69529
X17 X 0.51128 0.44204 0.69165
X18 X 0.51066 0.43846 0.68800
X19 X 0.50994 0.43490 0.68436
X20 X 0.50917 0.43134 0.68072
X21 X 0.50813 0.42784 0.67709
X22 X 0.50682 0.42441 0.67348
X23 X 0.50543 0.42241 0.67128
X24 X 0.50683 0.42425 0.66764
X25 X 0.50863 0.42620 0.66323
X26 X 0.51043 0.42807 0.65879
X27 X 0.51219 0.42990 0.65431
X28 X 0.51391 0.43169 0.64980
X29 X 0.51555 0.43346 0.64525
X30 X 0.51701 0.43518 0.64063
X31 X 0.51847 0.43691 0.63600
X32 X 0.51983 0.43860 0.63133
X33 X 0.52106 0.44027 0.62662
X34 X 0.52217 0.44190 0.62187
X35 X 0.52314 0.44350 0.61707
X36 X 0.52396 0.44505 0.61223
X37 X 0.52462 0.44655 0.60735
X38 X 0.52512 0.44800 0.60244
X39 X 0.52544 0.44939 0.59749
X40 X 0.52558 0.45072 0.59252
X41 X 0.52539 0.45191 0.58752
X42 X 0.52519 0.45311 0.58251
X43 X 0.52482 0.45424 0.57750
X44 X 0.52427 0.45529 0.57250
X45 X 0.52353 0.45626 0.56749
X46 X 0.52263 0.45715 0.56250
X47 X 0.52157 0.45797 0.55753
X48 X 0.52036 0.45871 0.55259
X49 X 0.51900 0.45938 0.54767
X50 X 0.51750 0.45997 0.54278
X51 X 0.51588 0.46049 0.53792
X52 X 0.51415 0.46094 0.53309
X53 X 0.51233 0.46133 0.52829
X54 X 0.51039 0.46164 0.52353
X55 X 0.50841 0.46190 0.51879
X56 X 0.50635 0.46209 0.51408
X57 X 0.50426 0.46224 0.50937
X58 X 0.50214 0.46235 0.50468
X59 X 0.50000 0.46235 0.50000
X60 X 0.49786 0.46235 0.49532
X61 X 0.49574 0.46224 0.49063
X62 X 0.49365 0.46209 0.48592
X63 X 0.49159 0.46190 0.48121
X64 X 0.48961 0.46164 0.47647
X65 X 0.48767 0.46133 0.47171
X66 X 0.48585 0.46094 0.46691
X67 X 0.48412 0.46049 0.46208
X68 X 0.48250 0.45997 0.45722
X69 X 0.48100 0.45938 0.45233
X70 X 0.47964 0.45871 0.44741
X71 X 0.47843 0.45797 0.44247
X72 X 0.47737 0.45715 0.43750
X73 X 0.47647 0.45626 0.43251
X74 X 0.47573 0.45529 0.42750
X75 X 0.47518 0.45424 0.42250
X76 X 0.47481 0.45311 0.41749
X77 X 0.47461 0.45191 0.41248
X78 X 0.47442 0.45072 0.40748
X79 X 0.47456 0.44939 0.40251
X80 X 0.47488 0.44800 0.39756
X81 X 0.47538 0.44655 0.39265
X82 X 0.47604 0.44505 0.38777
X83 X 0.47686 0.44350 0.38293
X84 X 0.47783 0.44190 0.37813
X85 X 0.47894 0.44027 0.37338
X86 X 0.48017 0.43860 0.36867
X87 X 0.48153 0.43691 0.36400
X88 X 0.48299 0.43518 0.35937
X89 X 0.48445 0.43346 0.35475
X90 X 0.48609 0.43169 0.35020
X91 X 0.48781 0.42990 0.34569
X92 X 0.48957 0.42807 0.34121
X93 X 0.49137 0.42620 0.33677
X94 X 0.49317 0.42425 0.33236
X95 X 0.49457 0.42241 0.32872
X96 X 0.49939 0.42054 0.33056
X97 X 0.50409 0.41903 0.33204
X98 X 0.50885 0.41764 0.33341
X99 X 0.51365 0.41631 0.33471
X100 X 0.51848 0.41504 0.33596
X101 X 0.52331 0.41377 0.33721
X102 X 0.52815 0.41253 0.33844
X103 X 0.53300 0.41130 0.33965
X104 X 0.53786 0.41008 0.34085
X105 X 0.54272 0.40888 0.34205
X106 X 0.54758 0.40768 0.34323
X107 X 0.55245 0.40648 0.34441
X108 X 0.55732 0.40530 0.34558
X109 X 0.56220 0.40414 0.34673
X110 X 0.56710 0.40301 0.34783
X111 X 0.57209 0.40208 0.34872
X112 X 0.57707 0.40116 0.34961
X113 X 0.58211 0.40040 0.35033
X114 X 0.58722 0.39990 0.35078
X115 X 0.59236 0.39974 0.35088
X116 X 0.59749 0.40001 0.35054
X117 X 0.60253 0.40073 0.34977
X118 X 0.60742 0.40184 0.34860
X119 X 0.61214 0.40327 0.34712
X120 X 0.61669 0.40495 0.34540
X121 X 0.62110 0.40681 0.34350
X122 X 0.62529 0.40890 0.34138
X123 X 0.62949 0.41100 0.33926
X124 X 0.63359 0.41318 0.33704
X125 X 0.63761 0.41545 0.33475
X126 X 0.64154 0.41779 0.33240
X127 X 0.64541 0.42018 0.32998
X128 X 0.64921 0.42263 0.32752
X129 X 0.65295 0.42512 0.32502
X130 X 0.65664 0.42765 0.32247
X131 X 0.66028 0.43022 0.31989
X132 X 0.66386 0.43283 0.31727
X133 X 0.66737 0.43549 0.31460
X134 X 0.67087 0.43816 0.31193
X135 X 0.67433 0.44085 0.30923
X136 X 0.67776 0.44356 0.30651
X137 X 0.68114 0.44630 0.30377
X138 X 0.68450 0.44906 0.30100
X139 X 0.68782 0.45184 0.29822
X140 X 0.69112 0.45463 0.29542
X141 X 0.69437 0.45745 0.29260
X142 X 0.69761 0.46027 0.28977
X143 X 0.70080 0.46313 0.28691
X144 X 0.70398 0.46599 0.28404
X145 X 0.70714 0.46887 0.28117
X146 X 0.71027 0.47175 0.27828
X147 X 0.71339 0.47465 0.27538
X148 X 0.71648 0.47756 0.27247
X149 X 0.71955 0.48048 0.26955
X150 X 0.72262 0.48340 0.26662
X151 X 0.72566 0.48634 0.26368
X152 X 0.72866 0.48929 0.26073
X153 X 0.73164 0.49226 0.25775
X154 X 0.73457 0.49525 0.25476
X155 X 0.73741 0.49828 0.25172
X156 X 0.73886 0.50000 0.25000
X157 X 0.73741 0.50172 0.24828
X158 X 0.73457 0.50475 0.24524
X159 X 0.73164 0.50774 0.24225
X160 X 0.72866 0.51071 0.23927
X161 X 0.72566 0.51366 0.23632
X162 X 0.72262 0.51660 0.23338
X163 X 0.71955 0.51952 0.23045
X164 X 0.71648 0.52244 0.22753
X165 X 0.71339 0.52535 0.22462
X166 X 0.71027 0.52825 0.22172
X167 X 0.70714 0.53113 0.21883
X168 X 0.70398 0.53401 0.21596
X169 X 0.70080 0.53687 0.21309
X170 X 0.69761 0.53973 0.21023
X171 X 0.69437 0.54255 0.20740
X172 X 0.69112 0.54537 0.20458
X173 X 0.68782 0.54816 0.20178
X174 X 0.68450 0.55094 0.19900
X175 X 0.68114 0.55370 0.19623
X176 X 0.67776 0.55644 0.19349
X177 X 0.67433 0.55915 0.19077
X178 X 0.67087 0.56184 0.18807
X179 X 0.66737 0.56451 0.18540
X180 X 0.66386 0.56717 0.18273
X181 X 0.66028 0.56978 0.18011
X182 X 0.65664 0.57235 0.17753
X183 X 0.65295 0.57488 0.17498
X184 X 0.64921 0.57737 0.17248
X185 X 0.64541 0.57982 0.17002
X186 X 0.64154 0.58221 0.16760
X187 X 0.63761 0.58455 0.16525
X188 X 0.63359 0.58682 0.16296
X189 X 0.62949 0.58900 0.16074
X190 X 0.62529 0.59110 0.15862
X191 X 0.62110 0.59319 0.15650
X192 X 0.61669 0.59505 0.15460
X193 X 0.61214 0.59673 0.15288
X194 X 0.60742 0.59816 0.15140
X195 X 0.60253 0.59927 0.15023
X196 X 0.59749 0.59999 0.14946
X197 X 0.59236 0.60026 0.14912
X198 X 0.58722 0.60010 0.14922
X199 X 0.58211 0.59960 0.14967
X200 X 0.57707 0.59884 0.15039
X201 X 0.57209 0.59792 0.15128
X202 X 0.56710 0.59699 0.15217
X203 X 0.56220 0.59586 0.15327
X204 X 0.55732 0.59470 0.15442
X205 X 0.55245 0.59352 0.15559
X206 X 0.54758 0.59232 0.15677
X207 X 0.54272 0.59112 0.15795
X208 X 0.53786 0.58992 0.15915
X209 X 0.53300 0.58870 0.16035
X210 X 0.52815 0.58747 0.16156
X211 X 0.52331 0.58623 0.16279
X212 X 0.51848 0.58496 0.16404
X213 X 0.51365 0.58369 0.16529
X214 X 0.50885 0.58236 0.16659
X215 X 0.50409 0.58097 0.16796
X216 X 0.49939 0.57946 0.16944
X217 X 0.49457 0.57759 0.17128
X218 X 0.49318 0.57559 0.17348
X219 X 0.49187 0.57216 0.17709
X220 X 0.49083 0.56866 0.18072
X221 X 0.49006 0.56510 0.18436
X222 X 0.48934 0.56154 0.18800
X223 X 0.48872 0.55796 0.19165
X224 X 0.48817 0.55436 0.19529
X225 X 0.48769 0.55076 0.19894
X226 X 0.48727 0.54715 0.20259
X227 X 0.48689 0.54354 0.20623
X228 X 0.48655 0.53992 0.20988
X229 X 0.48626 0.53630 0.21353
X230 X 0.48603 0.53268 0.21718
X231 X 0.48580 0.52905 0.22082
X232 X 0.48561 0.52542 0.22447
X233 X 0.48544 0.52179 0.22812
X234 X 0.48530 0.51816 0.23177
X235 X 0.48519 0.51453 0.23541
X236 X 0.48510 0.51090 0.23906
X237 X 0.48504 0.50727 0.24271
X238 X 0.48499 0.50363 0.24635
X239 X 0.48499 0.50000 0.25000
Li1 Li 0.52311 0.50000 0.75000
Li2 Li 0.52311 0.00000 0.25000
Li3 Li 0.47689 0.50000 0.25000
Li4 Li 0.47689 0.00000 0.75000
Li5 Li 0.75000 0.50000 0.52311
Li6 Li 0.75000 0.00000 0.47689
Li7 Li 0.25000 0.50000 0.47689
Li8 Li 0.25000 0.00000 0.52311
Li9 Li 0.75000 0.27311 0.75000
Li10 Li 0.75000 0.22689 0.25000
Li11 Li 0.25000 0.27311 0.25000
Li12 Li 0.25000 0.22689 0.75000
Li13 Li 0.75000 0.00000 0.02311
Li14 Li 0.75000 0.50000 0.97689
Li15 Li 0.25000 0.00000 0.97689
Li16 Li 0.25000 0.50000 0.02311
Li17 Li 0.75000 0.77311 0.25000
Li18 Li 0.75000 0.72689 0.75000
Li19 Li 0.25000 0.77311 0.75000
Li20 Li 0.25000 0.72689 0.25000
Li21 Li 0.02311 0.50000 0.25000
Li22 Li 0.02311 0.00000 0.75000
Li23 Li 0.97689 0.50000 0.75000
Li24 Li 0.97689 0.00000 0.25000
P1 P 0.00000 0.75000 0.00000
P2 P 0.00000 0.25000 0.50000
P3 P 0.50000 0.75000 0.50000
P4 P 0.50000 0.25000 0.00000
S1 S 0.11552 0.86552 0.11552
S2 S 0.11552 0.63448 0.88448
S3 S 0.88448 0.86552 0.88448
S4 S 0.88448 0.63448 0.11552
S5 S 0.11552 0.36552 0.61552
S6 S 0.11552 0.13448 0.38448
S7 S 0.88448 0.36552 0.38448
S8 S 0.88448 0.13448 0.61552
S9 S 0.61552 0.86552 0.61552
S10 S 0.61552 0.63448 0.38448
S11 S 0.38448 0.86552 0.38448
S12 S 0.38448 0.63448 0.61552
S13 S 0.61552 0.36552 0.11552
S14 S 0.61552 0.13448 0.88448
S15 S 0.38448 0.36552 0.88448
S16 S 0.38448 0.13448 0.11552
S17 S 0.75000 0.50000 0.75000
S18 S 0.75000 0.00000 0.25000
S19 S 0.25000 0.50000 0.25000
S20 S 0.25000 0.00000 0.75000
Cl1 Cl 0.50000 0.25000 0.50000
Cl2 Cl 0.50000 0.75000 0.00000
Cl3 Cl 0.00000 0.25000 0.00000
Cl4 Cl 0.00000 0.75000 0.50000
#End of findsym-output
