data_findsym-output
_cell_length_a                      10.279498
_cell_length_b                      10.279498
_cell_length_c                      10.279498
_cell_angle_alpha                   90.0
_cell_angle_beta                    90.0
_cell_angle_gamma                   90.0
_symmetry_space_group_name_H-M      None
loop_
_space_group_symop_id
_space_group_symop_operation_xyz
1 x,y,z
2 x,-y,-z
3 -x,y,-z
4 -x,-y,z
5 y,z,x
6 y,-z,-x
7 -y,z,-x
8 -y,-z,x
9 z,x,y
10 z,-x,-y
11 -z,x,-y
12 -z,-x,y
13 y,x,z
14 y,-x,-z
15 -y,x,-z
16 -y,-x,z
17 x,z,y
18 x,-z,-y
19 -x,z,-y
20 -x,-z,y
21 z,y,x
22 z,-y,-x
23 -z,y,-x
24 -z,-y,x
25 x,1/2+y,1/2+z
26 x,1/2-y,1/2-z
27 -x,1/2+y,1/2-z
28 -x,1/2-y,1/2+z
29 y,1/2+z,1/2+x
30 y,1/2-z,1/2-x
31 -y,1/2+z,1/2-x
32 -y,1/2-z,1/2+x
33 z,1/2+x,1/2+y
34 z,1/2-x,1/2-y
35 -z,1/2+x,1/2-y
36 -z,1/2-x,1/2+y
37 y,1/2+x,1/2+z
38 y,1/2-x,1/2-z
39 -y,1/2+x,1/2-z
40 -y,1/2-x,1/2+z
41 x,1/2+z,1/2+y
42 x,1/2-z,1/2-y
43 -x,1/2+z,1/2-y
44 -x,1/2-z,1/2+y
45 z,1/2+y,1/2+x
46 z,1/2-y,1/2-x
47 -z,1/2+y,1/2-x
48 -z,1/2-y,1/2+x
49 1/2+x,y,1/2+z
50 1/2+x,-y,1/2-z
51 1/2-x,y,1/2-z
52 1/2-x,-y,1/2+z
53 1/2+y,z,1/2+x
54 1/2+y,-z,1/2-x
55 1/2-y,z,1/2-x
56 1/2-y,-z,1/2+x
57 1/2+z,x,1/2+y
58 1/2+z,-x,1/2-y
59 1/2-z,x,1/2-y
60 1/2-z,-x,1/2+y
61 1/2+y,x,1/2+z
62 1/2+y,-x,1/2-z
63 1/2-y,x,1/2-z
64 1/2-y,-x,1/2+z
65 1/2+x,z,1/2+y
66 1/2+x,-z,1/2-y
67 1/2-x,z,1/2-y
68 1/2-x,-z,1/2+y
69 1/2+z,y,1/2+x
70 1/2+z,-y,1/2-x
71 1/2-z,y,1/2-x
72 1/2-z,-y,1/2+x
73 1/2+x,1/2+y,z
74 1/2+x,1/2-y,-z
75 1/2-x,1/2+y,-z
76 1/2-x,1/2-y,z
77 1/2+y,1/2+z,x
78 1/2+y,1/2-z,-x
79 1/2-y,1/2+z,-x
80 1/2-y,1/2-z,x
81 1/2+z,1/2+x,y
82 1/2+z,1/2-x,-y
83 1/2-z,1/2+x,-y
84 1/2-z,1/2-x,y
85 1/2+y,1/2+x,z
86 1/2+y,1/2-x,-z
87 1/2-y,1/2+x,-z
88 1/2-y,1/2-x,z
89 1/2+x,1/2+z,y
90 1/2+x,1/2-z,-y
91 1/2-x,1/2+z,-y
92 1/2-x,1/2-z,y
93 1/2+z,1/2+y,x
94 1/2+z,1/2-y,-x
95 1/2-z,1/2+y,-x
96 1/2-z,1/2-y,x
loop_
_atom_site_label
_atom_site_type_symbol
_atom_site_fract_x
_atom_site_fract_y
_atom_site_fract_z
X1 X 0.01693 0.25271 0.25045
X2 X 0.01702 0.24913 0.24675
X3 X 0.01710 0.24555 0.24305
X4 X 0.01717 0.24198 0.23934
X5 X 0.01723 0.23842 0.23563
X6 X 0.01728 0.23487 0.23190
X7 X 0.01732 0.23132 0.22817
X8 X 0.01735 0.22778 0.22443
X9 X 0.01738 0.22425 0.22069
X10 X 0.01739 0.22073 0.21693
X11 X 0.01740 0.21723 0.21316
X12 X 0.01740 0.21374 0.20937
X13 X 0.01739 0.21028 0.20556
X14 X 0.01738 0.20683 0.20174
X15 X 0.01737 0.20341 0.19789
X16 X 0.01736 0.20002 0.19402
X17 X 0.01735 0.19667 0.19011
X18 X 0.01736 0.19337 0.18616
X19 X 0.01739 0.19015 0.18214
X20 X 0.01742 0.18692 0.17813
X21 X 0.01755 0.18392 0.17395
X22 X 0.01782 0.18121 0.16958
X23 X 0.01847 0.17917 0.16490
X24 X 0.02056 0.17975 0.15998
X25 X 0.02336 0.18177 0.15551
X26 X 0.02591 0.18356 0.15141
X27 X 0.02846 0.18534 0.14730
X28 X 0.03101 0.18710 0.14319
X29 X 0.03355 0.18883 0.13907
X30 X 0.03610 0.19055 0.13494
X31 X 0.03866 0.19226 0.13081
X32 X 0.04122 0.19393 0.12667
X33 X 0.04379 0.19559 0.12253
X34 X 0.04637 0.19724 0.11839
X35 X 0.04900 0.19880 0.11425
X36 X 0.05164 0.20036 0.11011
X37 X 0.05434 0.20182 0.10598
X38 X 0.05708 0.20323 0.10186
X39 X 0.05989 0.20453 0.09774
X40 X 0.06277 0.20574 0.09365
X41 X 0.06578 0.20677 0.08960
X42 X 0.06889 0.20764 0.08560
X43 X 0.07220 0.20822 0.08170
X44 X 0.07678 0.20855 0.07678
X45 X 0.01436 0.24863 0.24784
X46 X 0.01428 0.24502 0.24418
X47 X 0.01419 0.24140 0.24052
X48 X 0.01408 0.23779 0.23685
X49 X 0.01393 0.23418 0.23319
X50 X 0.01375 0.23057 0.22952
X51 X 0.01354 0.22697 0.22585
X52 X 0.01329 0.22337 0.22217
X53 X 0.01300 0.21978 0.21849
X54 X 0.01271 0.21619 0.21482
X55 X 0.01234 0.21261 0.21113
X56 X 0.01192 0.20904 0.20745
X57 X 0.01145 0.20549 0.20375
X58 X 0.01091 0.20194 0.20006
X59 X 0.01030 0.19842 0.19636
X60 X 0.00961 0.19492 0.19265
X61 X 0.00882 0.19144 0.18893
X62 X 0.00791 0.18800 0.18521
X63 X 0.00683 0.18462 0.18148
X64 X 0.00572 0.18125 0.17775
X65 X 0.00413 0.17808 0.17402
X66 X 0.00213 0.17510 0.17033
X67 X 0.99837 0.17277 0.16675
X68 X 0.99394 0.17154 0.16500
X69 X 0.98923 0.17033 0.16333
X70 X 0.98445 0.16920 0.16176
X71 X 0.97967 0.16810 0.16021
X72 X 0.97486 0.16704 0.15870
X73 X 0.97005 0.16601 0.15719
X74 X 0.96523 0.16501 0.15569
X75 X 0.96041 0.16404 0.15417
X76 X 0.95558 0.16309 0.15264
X77 X 0.95077 0.16217 0.15108
X78 X 0.94596 0.16129 0.14945
X79 X 0.94116 0.16042 0.14782
X80 X 0.93636 0.15958 0.14614
X81 X 0.93159 0.15877 0.14440
X82 X 0.92683 0.15800 0.14259
X83 X 0.92210 0.15726 0.14071
X84 X 0.91738 0.15655 0.13876
X85 X 0.91273 0.15592 0.13665
X86 X 0.90812 0.15533 0.13444
X87 X 0.90358 0.15479 0.13208
X88 X 0.89913 0.15434 0.12952
X89 X 0.89481 0.15398 0.12676
X90 X 0.89061 0.15369 0.12378
X91 X 0.88651 0.15346 0.12068
X92 X 0.88288 0.15346 0.11703
X93 X 0.87924 0.15346 0.11339
X94 X 0.87614 0.15369 0.10928
X95 X 0.87316 0.15398 0.10510
X96 X 0.87042 0.15435 0.10076
X97 X 0.86790 0.15481 0.09629
X98 X 0.86553 0.15535 0.09175
X99 X 0.86328 0.15593 0.08716
X100 X 0.86122 0.15659 0.08249
X101 X 0.85923 0.15727 0.07779
X102 X 0.85735 0.15801 0.07306
X103 X 0.85554 0.15879 0.06830
X104 X 0.85381 0.15960 0.06352
X105 X 0.85213 0.16044 0.05873
X106 X 0.85050 0.16131 0.05392
X107 X 0.84891 0.16221 0.04911
X108 X 0.84735 0.16314 0.04429
X109 X 0.84579 0.16406 0.03947
X110 X 0.84428 0.16503 0.03465
X111 X 0.84277 0.16603 0.02983
X112 X 0.84127 0.16706 0.02501
X113 X 0.83976 0.16812 0.02021
X114 X 0.83822 0.16922 0.01542
X115 X 0.83663 0.17037 0.01066
X116 X 0.83497 0.17156 0.00594
Li1 Li 0.02311 0.25000 0.25000
P1 P 0.50000 0.50000 0.50000
S1 S 0.61552 0.61552 0.61552
S2 S 0.25000 0.25000 0.25000
Cl1 Cl 0.00000 0.00000 0.00000
#End of findsym-output
