data_findsym-output
_cell_length_a                      10.279498
_cell_length_b                      10.279498
_cell_length_c                      10.279498
_cell_angle_alpha                   90.0
_cell_angle_beta                    90.0
_cell_angle_gamma                   90.0
_symmetry_space_group_name_H-M      P1
loop_
_space_group_symop_id
_space_group_symop_operation_xyz
1 x,y,z
loop_
_atom_site_label
_atom_site_type_symbol
_atom_site_fract_x
_atom_site_fract_y
_atom_site_fract_z
X1 X 0.76742 0.49651 0.50349
X2 X 0.76526 0.49981 0.50019
X3 X 0.76518 0.50364 0.50364
X4 X 0.76513 0.50728 0.50728
X5 X 0.76506 0.51092 0.51092
X6 X 0.76498 0.51456 0.51456
X7 X 0.76487 0.51820 0.51820
X8 X 0.76473 0.52184 0.52184
X9 X 0.76457 0.52548 0.52548
X10 X 0.76437 0.52911 0.52911
X11 X 0.76415 0.53275 0.53275
X12 X 0.76392 0.53639 0.53639
X13 X 0.76363 0.54002 0.54002
X14 X 0.76330 0.54365 0.54365
X15 X 0.76293 0.54728 0.54728
X16 X 0.76250 0.55091 0.55091
X17 X 0.76202 0.55454 0.55454
X18 X 0.76148 0.55816 0.55816
X19 X 0.76086 0.56177 0.56177
X20 X 0.76014 0.56537 0.56537
X21 X 0.75937 0.56897 0.56897
X22 X 0.75833 0.57254 0.57254
X23 X 0.75585 0.57766 0.57766
X24 X 0.75022 0.57982 0.57982
X25 X 0.74553 0.58133 0.58133
X26 X 0.74077 0.58271 0.58271
X27 X 0.73595 0.58400 0.58400
X28 X 0.73114 0.58529 0.58529
X29 X 0.72631 0.58655 0.58655
X30 X 0.72147 0.58779 0.58779
X31 X 0.71662 0.58901 0.58901
X32 X 0.71176 0.59021 0.59021
X33 X 0.70690 0.59141 0.59141
X34 X 0.70204 0.59260 0.59260
X35 X 0.69717 0.59379 0.59379
X36 X 0.69229 0.59496 0.59496
X37 X 0.68741 0.59610 0.59610
X38 X 0.68247 0.59712 0.59712
X39 X 0.67753 0.59815 0.59815
X40 X 0.67254 0.59907 0.59907
X41 X 0.66751 0.59982 0.59982
X42 X 0.66241 0.60033 0.60033
X43 X 0.65727 0.60050 0.60050
X44 X 0.65213 0.60025 0.60025
X45 X 0.64708 0.59956 0.59956
X46 X 0.64217 0.59847 0.59847
X47 X 0.63742 0.59705 0.59705
X48 X 0.63284 0.59539 0.59539
X49 X 0.62841 0.59354 0.59354
X50 X 0.62419 0.59146 0.59146
X51 X 0.61997 0.58937 0.58937
X52 X 0.61585 0.58719 0.58719
X53 X 0.61181 0.58493 0.58493
X54 X 0.60786 0.58260 0.58260
X55 X 0.60397 0.58022 0.58022
X56 X 0.60014 0.57778 0.57778
X57 X 0.59638 0.57530 0.57530
X58 X 0.59267 0.57277 0.57277
X59 X 0.58901 0.57021 0.57021
X60 X 0.58540 0.56762 0.56762
X61 X 0.58186 0.56497 0.56497
X62 X 0.57833 0.56233 0.56233
X63 X 0.57483 0.55966 0.55966
X64 X 0.57137 0.55696 0.55696
X65 X 0.56794 0.55425 0.55425
X66 X 0.56454 0.55151 0.55151
X67 X 0.56116 0.54877 0.54877
X68 X 0.55782 0.54600 0.54600
X69 X 0.55449 0.54322 0.54322
X70 X 0.55120 0.54042 0.54042
X71 X 0.54791 0.53762 0.53762
X72 X 0.54464 0.53481 0.53481
X73 X 0.54137 0.53200 0.53200
X74 X 0.53811 0.52918 0.52918
X75 X 0.53486 0.52636 0.52636
X76 X 0.53160 0.52354 0.52354
X77 X 0.52834 0.52073 0.52073
X78 X 0.52506 0.51792 0.51792
X79 X 0.52177 0.51512 0.51512
X80 X 0.51844 0.51234 0.51234
X81 X 0.51506 0.50960 0.50960
X82 X 0.51160 0.50690 0.50690
X83 X 0.50806 0.50426 0.50426
X84 X 0.50421 0.50184 0.50184
X85 X 0.50000 0.50000 0.50000
X86 X 0.49579 0.49816 0.50184
X87 X 0.49194 0.49574 0.50426
X88 X 0.48840 0.49310 0.50690
X89 X 0.48494 0.49040 0.50960
X90 X 0.48156 0.48766 0.51234
X91 X 0.47823 0.48488 0.51512
X92 X 0.47494 0.48208 0.51792
X93 X 0.47166 0.47927 0.52073
X94 X 0.46840 0.47646 0.52354
X95 X 0.46514 0.47364 0.52636
X96 X 0.46189 0.47082 0.52918
X97 X 0.45863 0.46800 0.53200
X98 X 0.45536 0.46519 0.53481
X99 X 0.45209 0.46238 0.53762
X100 X 0.44880 0.45958 0.54042
X101 X 0.44551 0.45678 0.54322
X102 X 0.44218 0.45400 0.54600
X103 X 0.43884 0.45123 0.54877
X104 X 0.43546 0.44849 0.55151
X105 X 0.43206 0.44575 0.55425
X106 X 0.42863 0.44304 0.55696
X107 X 0.42517 0.44034 0.55966
X108 X 0.42167 0.43767 0.56233
X109 X 0.41814 0.43503 0.56497
X110 X 0.41460 0.43238 0.56762
X111 X 0.41099 0.42979 0.57021
X112 X 0.40733 0.42723 0.57277
X113 X 0.40362 0.42470 0.57530
X114 X 0.39986 0.42222 0.57778
X115 X 0.39603 0.41978 0.58022
X116 X 0.39214 0.41740 0.58260
X117 X 0.38819 0.41507 0.58493
X118 X 0.38415 0.41281 0.58719
X119 X 0.38003 0.41063 0.58937
X120 X 0.37581 0.40854 0.59146
X121 X 0.37159 0.40646 0.59354
X122 X 0.36716 0.40461 0.59539
X123 X 0.36258 0.40295 0.59705
X124 X 0.35783 0.40153 0.59847
X125 X 0.35292 0.40044 0.59956
X126 X 0.34787 0.39975 0.60025
X127 X 0.34273 0.39950 0.60050
X128 X 0.33759 0.39967 0.60033
X129 X 0.33249 0.40018 0.59982
X130 X 0.32746 0.40093 0.59907
X131 X 0.32247 0.40185 0.59815
X132 X 0.31753 0.40288 0.59712
X133 X 0.31259 0.40390 0.59610
X134 X 0.30771 0.40504 0.59496
X135 X 0.30283 0.40621 0.59379
X136 X 0.29796 0.40740 0.59260
X137 X 0.29310 0.40859 0.59141
X138 X 0.28824 0.40979 0.59021
X139 X 0.28338 0.41099 0.58901
X140 X 0.27853 0.41221 0.58779
X141 X 0.27369 0.41345 0.58655
X142 X 0.26886 0.41471 0.58529
X143 X 0.26405 0.41600 0.58400
X144 X 0.25923 0.41729 0.58271
X145 X 0.25447 0.41867 0.58133
X146 X 0.24978 0.42018 0.57982
X147 X 0.24415 0.42234 0.57766
X148 X 0.24167 0.42746 0.57254
X149 X 0.24063 0.43103 0.56897
X150 X 0.23986 0.43463 0.56537
X151 X 0.23914 0.43823 0.56177
X152 X 0.23852 0.44184 0.55816
X153 X 0.23798 0.44546 0.55454
X154 X 0.23750 0.44909 0.55091
X155 X 0.23707 0.45272 0.54728
X156 X 0.23670 0.45635 0.54365
X157 X 0.23637 0.45998 0.54002
X158 X 0.23608 0.46361 0.53639
X159 X 0.23585 0.46725 0.53275
X160 X 0.23563 0.47089 0.52911
X161 X 0.23543 0.47452 0.52548
X162 X 0.23527 0.47816 0.52184
X163 X 0.23513 0.48180 0.51820
X164 X 0.23502 0.48544 0.51456
X165 X 0.23494 0.48908 0.51092
X166 X 0.23487 0.49272 0.50728
X167 X 0.23482 0.49636 0.50364
X168 X 0.23482 0.50000 0.50000
X169 X 0.23258 0.49651 0.49651
Li1 Li 0.77311 0.50000 0.50000
Li2 Li 0.77311 0.00000 0.00000
Li3 Li 0.72689 0.50000 0.00000
Li4 Li 0.72689 0.00000 0.50000
Li5 Li 0.00000 0.50000 0.27311
Li6 Li 0.00000 0.00000 0.22689
Li7 Li 0.50000 0.50000 0.22689
Li8 Li 0.50000 0.00000 0.27311
Li9 Li 0.00000 0.27311 0.50000
Li10 Li 0.00000 0.22689 0.00000
Li11 Li 0.50000 0.27311 0.00000
Li12 Li 0.50000 0.22689 0.50000
Li13 Li 0.00000 0.00000 0.77311
Li14 Li 0.00000 0.50000 0.72689
Li15 Li 0.50000 0.00000 0.72689
Li16 Li 0.50000 0.50000 0.77311
Li17 Li 0.00000 0.77311 0.00000
Li18 Li 0.00000 0.72689 0.50000
Li19 Li 0.50000 0.77311 0.50000
Li20 Li 0.50000 0.72689 0.00000
Li21 Li 0.27311 0.50000 0.00000
Li22 Li 0.27311 0.00000 0.50000
Li23 Li 0.22689 0.50000 0.50000
Li24 Li 0.22689 0.00000 0.00000
P1 P 0.25000 0.75000 0.75000
P2 P 0.25000 0.25000 0.25000
P3 P 0.75000 0.75000 0.25000
P4 P 0.75000 0.25000 0.75000
S1 S 0.36552 0.86552 0.86552
S2 S 0.36552 0.63448 0.63448
S3 S 0.13448 0.86552 0.63448
S4 S 0.13448 0.63448 0.86552
S5 S 0.36552 0.36552 0.36552
S6 S 0.36552 0.13448 0.13448
S7 S 0.13448 0.36552 0.13448
S8 S 0.13448 0.13448 0.36552
S9 S 0.86552 0.86552 0.36552
S10 S 0.86552 0.63448 0.13448
S11 S 0.63448 0.86552 0.13448
S12 S 0.63448 0.63448 0.36552
S13 S 0.86552 0.36552 0.86552
S14 S 0.86552 0.13448 0.63448
S15 S 0.63448 0.36552 0.63448
S16 S 0.63448 0.13448 0.86552
S17 S 0.00000 0.50000 0.50000
S18 S 0.00000 0.00000 0.00000
S19 S 0.50000 0.50000 0.00000
S20 S 0.50000 0.00000 0.50000
Cl1 Cl 0.75000 0.25000 0.25000
Cl2 Cl 0.75000 0.75000 0.75000
Cl3 Cl 0.25000 0.25000 0.75000
Cl4 Cl 0.25000 0.75000 0.25000
#End of findsym-output
