data_findsym-output
_cell_length_a                      10.279498
_cell_length_b                      10.279498
_cell_length_c                      10.279498
_cell_angle_alpha                   90.0
_cell_angle_beta                    90.0
_cell_angle_gamma                   90.0
_symmetry_space_group_name_H-M      P1
loop_
_space_group_symop_id
_space_group_symop_operation_xyz
1 x,y,z
loop_
_atom_site_label
_atom_site_type_symbol
_atom_site_fract_x
_atom_site_fract_y
_atom_site_fract_z
X1 X 0.37848 0.25002 0.63658
X2 X 0.37848 0.25366 0.64022
X3 X 0.37843 0.25730 0.64385
X4 X 0.37836 0.26094 0.64749
X5 X 0.37828 0.26458 0.65113
X6 X 0.37817 0.26822 0.65477
X7 X 0.37803 0.27186 0.65841
X8 X 0.37786 0.27550 0.66205
X9 X 0.37766 0.27914 0.66569
X10 X 0.37744 0.28278 0.66932
X11 X 0.37721 0.28641 0.67296
X12 X 0.37691 0.29005 0.67659
X13 X 0.37658 0.29368 0.68022
X14 X 0.37620 0.29731 0.68385
X15 X 0.37578 0.30094 0.68748
X16 X 0.37529 0.30457 0.69110
X17 X 0.37475 0.30819 0.69472
X18 X 0.37412 0.31180 0.69833
X19 X 0.37340 0.31540 0.70194
X20 X 0.37263 0.31901 0.70553
X21 X 0.37158 0.32257 0.70910
X22 X 0.37021 0.32608 0.71260
X23 X 0.36907 0.32778 0.71430
X24 X 0.37104 0.33263 0.71181
X25 X 0.37288 0.33705 0.70991
X26 X 0.37471 0.34147 0.70803
X27 X 0.37652 0.34593 0.70619
X28 X 0.37826 0.35042 0.70439
X29 X 0.37995 0.35495 0.70261
X30 X 0.38155 0.35952 0.70086
X31 X 0.38305 0.36413 0.69913
X32 X 0.38446 0.36878 0.69743
X33 X 0.38575 0.37347 0.69575
X34 X 0.38691 0.37821 0.69411
X35 X 0.38783 0.38303 0.69254
X36 X 0.38875 0.38785 0.69098
X37 X 0.38953 0.39270 0.68946
X38 X 0.39017 0.39760 0.68799
X39 X 0.39068 0.40252 0.68658
X40 X 0.39105 0.40747 0.68522
X41 X 0.39131 0.41245 0.68393
X42 X 0.39148 0.41744 0.68270
X43 X 0.39157 0.42246 0.68155
X44 X 0.39163 0.42749 0.68047
X45 X 0.39169 0.43255 0.67948
X46 X 0.39183 0.43762 0.67861
X47 X 0.39209 0.44270 0.67786
X48 X 0.39257 0.44780 0.67729
X49 X 0.39332 0.45288 0.67695
X50 X 0.39441 0.45791 0.67686
X51 X 0.39585 0.46285 0.67706
X52 X 0.39761 0.46766 0.67755
X53 X 0.39980 0.47222 0.67848
X54 X 0.40200 0.47679 0.67941
X55 X 0.40436 0.48122 0.68053
X56 X 0.40685 0.48554 0.68180
X57 X 0.40944 0.48977 0.68320
X58 X 0.41208 0.49392 0.68470
X59 X 0.41478 0.49801 0.68629
X60 X 0.41750 0.50205 0.68795
X61 X 0.42024 0.50606 0.68966
X62 X 0.42300 0.51003 0.69143
X63 X 0.42576 0.51398 0.69324
X64 X 0.42852 0.51791 0.69509
X65 X 0.43127 0.52184 0.69697
X66 X 0.43401 0.52575 0.69889
X67 X 0.43674 0.52966 0.70083
X68 X 0.43945 0.53356 0.70281
X69 X 0.44215 0.53746 0.70481
X70 X 0.44482 0.54137 0.70684
X71 X 0.44748 0.54528 0.70888
X72 X 0.45009 0.54919 0.71097
X73 X 0.45270 0.55310 0.71307
X74 X 0.45525 0.55702 0.71521
X75 X 0.45779 0.56094 0.71737
X76 X 0.46028 0.56488 0.71956
X77 X 0.46274 0.56882 0.72178
X78 X 0.46516 0.57277 0.72403
X79 X 0.46758 0.57672 0.72627
X80 X 0.46993 0.58068 0.72857
X81 X 0.47222 0.58465 0.73091
X82 X 0.47446 0.58864 0.73328
X83 X 0.47664 0.59263 0.73570
X84 X 0.47875 0.59663 0.73815
X85 X 0.48077 0.60065 0.74066
X86 X 0.48270 0.60467 0.74322
X87 X 0.48452 0.60870 0.74586
X88 X 0.48619 0.61274 0.74859
X89 X 0.48772 0.61676 0.75141
X90 X 0.48898 0.62074 0.75441
X91 X 0.49001 0.62551 0.75852
X92 X 0.49332 0.62932 0.75563
X93 X 0.49628 0.63239 0.75275
X94 X 0.49925 0.63543 0.74983
X95 X 0.50221 0.63844 0.74689
X96 X 0.50518 0.64145 0.74395
X97 X 0.50815 0.64445 0.74100
X98 X 0.51111 0.64744 0.73805
X99 X 0.51408 0.65043 0.73509
X100 X 0.51704 0.65342 0.73213
X101 X 0.52001 0.65640 0.72916
X102 X 0.52297 0.65939 0.72619
X103 X 0.52594 0.66236 0.72322
X104 X 0.52890 0.66534 0.72024
X105 X 0.53187 0.66832 0.71726
X106 X 0.53483 0.67129 0.71428
X107 X 0.53779 0.67426 0.71129
X108 X 0.54075 0.67723 0.70831
X109 X 0.54371 0.68019 0.70532
X110 X 0.54667 0.68316 0.70232
X111 X 0.54962 0.68612 0.69933
X112 X 0.55258 0.68908 0.69633
X113 X 0.55553 0.69204 0.69332
X114 X 0.55849 0.69500 0.69031
X115 X 0.56143 0.69795 0.68730
X116 X 0.56438 0.70090 0.68427
X117 X 0.56732 0.70384 0.68125
X118 X 0.57026 0.70678 0.67821
X119 X 0.57319 0.70972 0.67516
X120 X 0.57612 0.71265 0.67211
X121 X 0.57905 0.71558 0.66905
X122 X 0.58196 0.71850 0.66597
X123 X 0.58487 0.72141 0.66288
X124 X 0.58777 0.72431 0.65976
X125 X 0.59065 0.72720 0.65663
X126 X 0.59352 0.73007 0.65346
X127 X 0.59637 0.73292 0.65026
X128 X 0.59920 0.73575 0.64702
X129 X 0.60198 0.73854 0.64371
X130 X 0.60472 0.74128 0.64032
X131 X 0.60744 0.74400 0.63690
X132 X 0.60996 0.74654 0.63320
X133 X 0.61230 0.74888 0.62925
X134 X 0.61341 0.75001 0.62547
X135 X 0.61167 0.75176 0.62400
X136 X 0.60864 0.75479 0.62114
X137 X 0.60565 0.75779 0.61822
X138 X 0.60268 0.76076 0.61524
X139 X 0.59973 0.76371 0.61223
X140 X 0.59679 0.76666 0.60920
X141 X 0.59386 0.76959 0.60615
X142 X 0.59095 0.77250 0.60306
X143 X 0.58804 0.77541 0.59996
X144 X 0.58514 0.77831 0.59685
X145 X 0.58226 0.78120 0.59372
X146 X 0.57938 0.78408 0.59056
X147 X 0.57652 0.78694 0.58739
X148 X 0.57366 0.78980 0.58420
X149 X 0.57083 0.79263 0.58095
X150 X 0.56801 0.79546 0.57771
X151 X 0.56522 0.79825 0.57441
X152 X 0.56244 0.80104 0.57109
X153 X 0.55967 0.80380 0.56774
X154 X 0.55693 0.80655 0.56436
X155 X 0.55421 0.80927 0.56094
X156 X 0.55152 0.81197 0.55748
X157 X 0.54885 0.81464 0.55398
X158 X 0.54618 0.81731 0.55048
X159 X 0.54357 0.81993 0.54690
X160 X 0.54099 0.82251 0.54327
X161 X 0.53845 0.82506 0.53959
X162 X 0.53595 0.82756 0.53585
X163 X 0.53349 0.83003 0.53206
X164 X 0.53108 0.83244 0.52820
X165 X 0.52873 0.83479 0.52427
X166 X 0.52645 0.83709 0.52026
X167 X 0.52425 0.83930 0.51617
X168 X 0.52214 0.84142 0.51198
X169 X 0.52003 0.84354 0.50779
X170 X 0.51814 0.84543 0.50339
X171 X 0.51645 0.84714 0.49884
X172 X 0.51500 0.84860 0.49412
X173 X 0.51387 0.84974 0.48923
X174 X 0.51315 0.85048 0.48419
X175 X 0.51288 0.85076 0.47905
X176 X 0.51304 0.85061 0.47391
X177 X 0.51355 0.85010 0.46881
X178 X 0.51431 0.84934 0.46378
X179 X 0.51524 0.84841 0.45880
X180 X 0.51617 0.84748 0.45382
X181 X 0.51729 0.84635 0.44893
X182 X 0.51845 0.84518 0.44405
X183 X 0.51963 0.84399 0.43919
X184 X 0.52082 0.84279 0.43432
X185 X 0.52202 0.84159 0.42946
X186 X 0.52322 0.84038 0.42460
X187 X 0.52443 0.83916 0.41975
X188 X 0.52566 0.83793 0.41491
X189 X 0.52690 0.83668 0.41007
X190 X 0.52816 0.83541 0.40524
X191 X 0.52942 0.83414 0.40041
X192 X 0.53075 0.83281 0.39562
X193 X 0.53213 0.83142 0.39086
X194 X 0.53364 0.82991 0.38618
X195 X 0.53561 0.82792 0.38108
X196 X 0.54032 0.82318 0.37865
X197 X 0.54387 0.81962 0.37756
X198 X 0.54745 0.81603 0.37670
X199 X 0.55106 0.81241 0.37605
X200 X 0.55467 0.80880 0.37541
X201 X 0.55829 0.80518 0.37484
X202 X 0.56191 0.80155 0.37434
X203 X 0.56553 0.79793 0.37390
X204 X 0.56916 0.79429 0.37351
X205 X 0.57279 0.79066 0.37317
X206 X 0.57643 0.78703 0.37287
X207 X 0.58006 0.78339 0.37260
X208 X 0.58370 0.77975 0.37237
X209 X 0.58733 0.77612 0.37217
X210 X 0.59097 0.77248 0.37202
X211 X 0.59462 0.76885 0.37187
X212 X 0.59827 0.76522 0.37175
X213 X 0.60193 0.76160 0.37164
X214 X 0.60563 0.75802 0.37154
X215 X 0.60942 0.75455 0.37141
X216 X 0.61384 0.75196 0.37087
Li1 Li 0.38656 0.25000 0.63655
Li2 Li 0.38656 0.75000 0.13655
Li3 Li 0.34034 0.25000 0.13655
Li4 Li 0.34034 0.75000 0.63655
Li5 Li 0.61345 0.25000 0.40967
Li6 Li 0.61345 0.75000 0.36345
Li7 Li 0.11345 0.25000 0.36345
Li8 Li 0.11345 0.75000 0.40967
Li9 Li 0.61345 0.02311 0.63655
Li10 Li 0.61345 0.97689 0.13655
Li11 Li 0.11345 0.02311 0.13655
Li12 Li 0.11345 0.97689 0.63655
Li13 Li 0.61345 0.75000 0.90966
Li14 Li 0.61345 0.25000 0.86345
Li15 Li 0.11345 0.75000 0.86345
Li16 Li 0.11345 0.25000 0.90966
Li17 Li 0.61345 0.52311 0.13655
Li18 Li 0.61345 0.47689 0.63655
Li19 Li 0.11345 0.52311 0.63655
Li20 Li 0.11345 0.47689 0.13655
Li21 Li 0.88655 0.25000 0.13655
Li22 Li 0.88655 0.75000 0.63655
Li23 Li 0.84034 0.25000 0.63655
Li24 Li 0.84034 0.75000 0.13655
P1 P 0.86345 0.50000 0.88655
P2 P 0.86345 0.00000 0.38655
P3 P 0.36345 0.50000 0.38655
P4 P 0.36345 0.00000 0.88655
S1 S 0.97896 0.61552 0.00208
S2 S 0.97896 0.38448 0.77104
S3 S 0.74793 0.61552 0.77104
S4 S 0.74793 0.38448 0.00208
S5 S 0.97896 0.11552 0.50208
S6 S 0.97896 0.88448 0.27103
S7 S 0.74793 0.11552 0.27103
S8 S 0.74793 0.88448 0.50208
S9 S 0.47897 0.61552 0.50208
S10 S 0.47897 0.38448 0.27103
S11 S 0.24792 0.61552 0.27103
S12 S 0.24792 0.38448 0.50208
S13 S 0.47897 0.11552 0.00208
S14 S 0.47897 0.88448 0.77104
S15 S 0.24792 0.11552 0.77104
S16 S 0.24792 0.88448 0.00208
S17 S 0.61345 0.25000 0.63655
S18 S 0.61345 0.75000 0.13655
S19 S 0.11345 0.25000 0.13655
S20 S 0.11345 0.75000 0.63655
Cl1 Cl 0.36345 0.00000 0.38655
Cl2 Cl 0.36345 0.50000 0.88655
Cl3 Cl 0.86345 0.00000 0.88655
Cl4 Cl 0.86345 0.50000 0.38655
#End of findsym-output
