data_findsym-output
_cell_length_a                      10.279498
_cell_length_b                      10.279498
_cell_length_c                      10.279498
_cell_angle_alpha                   90.0
_cell_angle_beta                    90.0
_cell_angle_gamma                   90.0
_symmetry_space_group_name_H-M      P1
loop_
_space_group_symop_id
_space_group_symop_operation_xyz
1 x,y,z
loop_
_atom_site_label
_atom_site_type_symbol
_atom_site_fract_x
_atom_site_fract_y
_atom_site_fract_z
X1 X 0.49258 0.24887 0.25113
X2 X 0.49191 0.25000 0.25000
X3 X 0.49191 0.25364 0.25364
X4 X 0.49186 0.25728 0.25728
X5 X 0.49180 0.26092 0.26092
X6 X 0.49171 0.26456 0.26456
X7 X 0.49160 0.26820 0.26820
X8 X 0.49147 0.27184 0.27184
X9 X 0.49130 0.27548 0.27548
X10 X 0.49110 0.27911 0.27911
X11 X 0.49087 0.28275 0.28275
X12 X 0.49064 0.28639 0.28639
X13 X 0.49035 0.29002 0.29002
X14 X 0.49002 0.29365 0.29365
X15 X 0.48964 0.29728 0.29728
X16 X 0.48921 0.30091 0.30091
X17 X 0.48873 0.30453 0.30453
X18 X 0.48818 0.30815 0.30815
X19 X 0.48756 0.31177 0.31177
X20 X 0.48683 0.31537 0.31537
X21 X 0.48607 0.31897 0.31897
X22 X 0.48502 0.32254 0.32254
X23 X 0.48365 0.32604 0.32604
X24 X 0.48249 0.32779 0.32779
X25 X 0.48443 0.32533 0.33257
X26 X 0.48626 0.32343 0.33700
X27 X 0.48810 0.32154 0.34142
X28 X 0.48990 0.31971 0.34588
X29 X 0.49164 0.31791 0.35038
X30 X 0.49332 0.31613 0.35491
X31 X 0.49492 0.31438 0.35948
X32 X 0.49642 0.31265 0.36409
X33 X 0.49783 0.31094 0.36874
X34 X 0.49911 0.30927 0.37343
X35 X 0.50027 0.30763 0.37817
X36 X 0.50118 0.30607 0.38299
X37 X 0.50210 0.30450 0.38781
X38 X 0.50287 0.30298 0.39267
X39 X 0.50351 0.30152 0.39756
X40 X 0.50401 0.30010 0.40248
X41 X 0.50439 0.29875 0.40744
X42 X 0.50464 0.29746 0.41241
X43 X 0.50480 0.29623 0.41741
X44 X 0.50489 0.29508 0.42243
X45 X 0.50495 0.29400 0.42746
X46 X 0.50502 0.29302 0.43251
X47 X 0.50515 0.29214 0.43758
X48 X 0.50542 0.29140 0.44267
X49 X 0.50590 0.29083 0.44777
X50 X 0.50665 0.29048 0.45284
X51 X 0.50774 0.29040 0.45788
X52 X 0.50918 0.29060 0.46281
X53 X 0.51094 0.29108 0.46763
X54 X 0.51313 0.29201 0.47219
X55 X 0.51532 0.29294 0.47676
X56 X 0.51769 0.29406 0.48119
X57 X 0.52017 0.29533 0.48551
X58 X 0.52275 0.29673 0.48974
X59 X 0.52540 0.29823 0.49390
X60 X 0.52809 0.29982 0.49799
X61 X 0.53081 0.30148 0.50203
X62 X 0.53355 0.30319 0.50604
X63 X 0.53631 0.30496 0.51001
X64 X 0.53906 0.30677 0.51396
X65 X 0.54182 0.30862 0.51790
X66 X 0.54457 0.31051 0.52182
X67 X 0.54731 0.31242 0.52573
X68 X 0.55003 0.31437 0.52964
X69 X 0.55274 0.31635 0.53355
X70 X 0.55543 0.31836 0.53745
X71 X 0.55810 0.32039 0.54135
X72 X 0.56076 0.32244 0.54526
X73 X 0.56337 0.32454 0.54917
X74 X 0.56597 0.32664 0.55308
X75 X 0.56852 0.32880 0.55700
X76 X 0.57106 0.33096 0.56092
X77 X 0.57354 0.33317 0.56485
X78 X 0.57600 0.33540 0.56879
X79 X 0.57841 0.33766 0.57274
X80 X 0.58083 0.33992 0.57668
X81 X 0.58317 0.34224 0.58064
X82 X 0.58545 0.34459 0.58460
X83 X 0.58768 0.34699 0.58858
X84 X 0.58985 0.34942 0.59256
X85 X 0.59195 0.35191 0.59655
X86 X 0.59396 0.35445 0.60055
X87 X 0.59588 0.35705 0.60455
X88 X 0.59768 0.35973 0.60856
X89 X 0.59934 0.36251 0.61257
X90 X 0.60085 0.36539 0.61656
X91 X 0.60210 0.36846 0.62050
X92 X 0.60305 0.37177 0.62433
X93 X 0.60333 0.37372 0.62628
X94 X 0.60305 0.37567 0.62823
X95 X 0.60210 0.37950 0.63154
X96 X 0.60085 0.38344 0.63461
X97 X 0.59934 0.38743 0.63749
X98 X 0.59768 0.39144 0.64027
X99 X 0.59588 0.39545 0.64295
X100 X 0.59396 0.39945 0.64555
X101 X 0.59195 0.40345 0.64809
X102 X 0.58985 0.40744 0.65058
X103 X 0.58768 0.41142 0.65301
X104 X 0.58545 0.41540 0.65541
X105 X 0.58317 0.41936 0.65776
X106 X 0.58083 0.42332 0.66008
X107 X 0.57841 0.42726 0.66234
X108 X 0.57600 0.43121 0.66460
X109 X 0.57354 0.43515 0.66683
X110 X 0.57106 0.43908 0.66904
X111 X 0.56852 0.44300 0.67120
X112 X 0.56597 0.44692 0.67336
X113 X 0.56337 0.45083 0.67546
X114 X 0.56076 0.45474 0.67756
X115 X 0.55810 0.45865 0.67961
X116 X 0.55543 0.46255 0.68164
X117 X 0.55274 0.46645 0.68365
X118 X 0.55003 0.47036 0.68563
X119 X 0.54731 0.47427 0.68758
X120 X 0.54457 0.47818 0.68949
X121 X 0.54182 0.48210 0.69138
X122 X 0.53906 0.48604 0.69323
X123 X 0.53631 0.48999 0.69504
X124 X 0.53355 0.49396 0.69681
X125 X 0.53081 0.49797 0.69852
X126 X 0.52809 0.50201 0.70018
X127 X 0.52540 0.50610 0.70177
X128 X 0.52275 0.51026 0.70327
X129 X 0.52017 0.51449 0.70467
X130 X 0.51769 0.51881 0.70594
X131 X 0.51532 0.52324 0.70706
X132 X 0.51313 0.52781 0.70799
X133 X 0.51094 0.53237 0.70892
X134 X 0.50918 0.53719 0.70940
X135 X 0.50774 0.54212 0.70960
X136 X 0.50665 0.54716 0.70952
X137 X 0.50590 0.55223 0.70917
X138 X 0.50542 0.55733 0.70860
X139 X 0.50515 0.56242 0.70786
X140 X 0.50502 0.56749 0.70698
X141 X 0.50495 0.57254 0.70600
X142 X 0.50489 0.57757 0.70492
X143 X 0.50480 0.58259 0.70377
X144 X 0.50464 0.58759 0.70254
X145 X 0.50439 0.59256 0.70125
X146 X 0.50401 0.59752 0.69990
X147 X 0.50351 0.60244 0.69848
X148 X 0.50287 0.60733 0.69702
X149 X 0.50210 0.61219 0.69550
X150 X 0.50118 0.61701 0.69393
X151 X 0.50027 0.62183 0.69237
X152 X 0.49911 0.62657 0.69073
X153 X 0.49783 0.63126 0.68906
X154 X 0.49642 0.63591 0.68735
X155 X 0.49492 0.64052 0.68562
X156 X 0.49332 0.64509 0.68387
X157 X 0.49164 0.64962 0.68209
X158 X 0.48990 0.65412 0.68029
X159 X 0.48810 0.65858 0.67846
X160 X 0.48626 0.66300 0.67657
X161 X 0.48443 0.66743 0.67467
X162 X 0.48249 0.67221 0.67221
X163 X 0.48365 0.67396 0.67396
X164 X 0.48502 0.67746 0.67746
X165 X 0.48607 0.68103 0.68103
X166 X 0.48683 0.68463 0.68463
X167 X 0.48756 0.68823 0.68823
X168 X 0.48818 0.69185 0.69185
X169 X 0.48873 0.69547 0.69547
X170 X 0.48921 0.69909 0.69909
X171 X 0.48964 0.70272 0.70272
X172 X 0.49002 0.70635 0.70635
X173 X 0.49035 0.70998 0.70998
X174 X 0.49064 0.71361 0.71361
X175 X 0.49087 0.71725 0.71725
X176 X 0.49110 0.72089 0.72089
X177 X 0.49130 0.72452 0.72452
X178 X 0.49147 0.72816 0.72816
X179 X 0.49160 0.73180 0.73180
X180 X 0.49171 0.73544 0.73544
X181 X 0.49180 0.73908 0.73908
X182 X 0.49186 0.74272 0.74272
X183 X 0.49191 0.74636 0.74636
X184 X 0.49191 0.75000 0.75000
X185 X 0.49258 0.75113 0.74887
Li1 Li 0.50000 0.25000 0.25000
Li2 Li 0.50000 0.75000 0.75000
Li3 Li 0.45378 0.25000 0.75000
Li4 Li 0.45378 0.75000 0.25000
Li5 Li 0.72689 0.25000 0.02311
Li6 Li 0.72689 0.75000 0.97689
Li7 Li 0.22689 0.25000 0.97689
Li8 Li 0.22689 0.75000 0.02311
Li9 Li 0.72689 0.02311 0.25000
Li10 Li 0.72689 0.97689 0.75000
Li11 Li 0.22689 0.02311 0.75000
Li12 Li 0.22689 0.97689 0.25000
Li13 Li 0.72689 0.75000 0.52311
Li14 Li 0.72689 0.25000 0.47689
Li15 Li 0.22689 0.75000 0.47689
Li16 Li 0.22689 0.25000 0.52311
Li17 Li 0.72689 0.52311 0.75000
Li18 Li 0.72689 0.47689 0.25000
Li19 Li 0.22689 0.52311 0.25000
Li20 Li 0.22689 0.47689 0.75000
Li21 Li 0.00000 0.25000 0.75000
Li22 Li 0.00000 0.75000 0.25000
Li23 Li 0.95378 0.25000 0.25000
Li24 Li 0.95378 0.75000 0.75000
P1 P 0.97689 0.50000 0.50000
P2 P 0.97689 0.00000 0.00000
P3 P 0.47689 0.50000 0.00000
P4 P 0.47689 0.00000 0.50000
S1 S 0.09241 0.61552 0.61552
S2 S 0.09241 0.38448 0.38448
S3 S 0.86137 0.61552 0.38448
S4 S 0.86137 0.38448 0.61552
S5 S 0.09241 0.11552 0.11552
S6 S 0.09241 0.88448 0.88448
S7 S 0.86137 0.11552 0.88448
S8 S 0.86137 0.88448 0.11552
S9 S 0.59241 0.61552 0.11552
S10 S 0.59241 0.38448 0.88448
S11 S 0.36137 0.61552 0.88448
S12 S 0.36137 0.38448 0.11552
S13 S 0.59241 0.11552 0.61552
S14 S 0.59241 0.88448 0.38448
S15 S 0.36137 0.11552 0.38448
S16 S 0.36137 0.88448 0.61552
S17 S 0.72689 0.25000 0.25000
S18 S 0.72689 0.75000 0.75000
S19 S 0.22689 0.25000 0.75000
S20 S 0.22689 0.75000 0.25000
Cl1 Cl 0.47689 0.00000 0.00000
Cl2 Cl 0.47689 0.50000 0.50000
Cl3 Cl 0.97689 0.00000 0.50000
Cl4 Cl 0.97689 0.50000 0.00000
#End of findsym-output
