data_findsym-output
_cell_length_a                      10.279498
_cell_length_b                      10.279498
_cell_length_c                      10.279498
_cell_angle_alpha                   90.0
_cell_angle_beta                    90.0
_cell_angle_gamma                   90.0
_symmetry_space_group_name_H-M      P1
loop_
_space_group_symop_id
_space_group_symop_operation_xyz
1 x,y,z
loop_
_atom_site_label
_atom_site_type_symbol
_atom_site_fract_x
_atom_site_fract_y
_atom_site_fract_z
X1 X 0.49258 0.74887 0.25113
X2 X 0.49483 0.74559 0.25441
X3 X 0.49722 0.74237 0.25763
X4 X 0.49963 0.73915 0.26085
X5 X 0.50207 0.73595 0.26405
X6 X 0.50451 0.73274 0.26726
X7 X 0.50695 0.72954 0.27046
X8 X 0.50940 0.72633 0.27367
X9 X 0.51183 0.72313 0.27687
X10 X 0.51426 0.71992 0.28008
X11 X 0.51670 0.71671 0.28329
X12 X 0.51912 0.71350 0.28650
X13 X 0.52154 0.71029 0.28971
X14 X 0.52396 0.70708 0.29292
X15 X 0.52638 0.70386 0.29614
X16 X 0.52879 0.70065 0.29935
X17 X 0.53121 0.69743 0.30257
X18 X 0.53362 0.69422 0.30578
X19 X 0.53604 0.69100 0.30900
X20 X 0.53846 0.68779 0.31221
X21 X 0.54090 0.68459 0.31541
X22 X 0.54335 0.68138 0.31862
X23 X 0.54581 0.67818 0.32182
X24 X 0.54829 0.67500 0.32500
X25 X 0.55080 0.67182 0.32818
X26 X 0.55336 0.66866 0.33134
X27 X 0.55597 0.66552 0.33448
X28 X 0.55864 0.66241 0.33759
X29 X 0.56140 0.65934 0.34066
X30 X 0.56426 0.65631 0.34369
X31 X 0.56724 0.65334 0.34666
X32 X 0.57037 0.65045 0.34955
X33 X 0.57364 0.64764 0.35236
X34 X 0.57705 0.64492 0.35508
X35 X 0.58061 0.64228 0.35772
X36 X 0.58429 0.63974 0.36026
X37 X 0.58808 0.63728 0.36272
X38 X 0.59197 0.63489 0.36511
X39 X 0.59594 0.63257 0.36743
X40 X 0.59998 0.63032 0.36968
X41 X 0.60407 0.62811 0.37189
X42 X 0.60825 0.62598 0.37402
X43 X 0.61243 0.62386 0.37614
X44 X 0.61665 0.62177 0.37823
X45 X 0.62089 0.61971 0.38029
X46 X 0.62517 0.61769 0.38231
X47 X 0.62947 0.61568 0.38432
X48 X 0.63379 0.61371 0.38629
X49 X 0.63813 0.61175 0.38825
X50 X 0.64248 0.60980 0.39020
X51 X 0.64685 0.60788 0.39212
X52 X 0.65123 0.60596 0.39404
X53 X 0.65562 0.60406 0.39594
X54 X 0.66001 0.60217 0.39783
X55 X 0.66442 0.60028 0.39972
X56 X 0.66882 0.59840 0.40160
X57 X 0.67322 0.59651 0.40349
X58 X 0.67762 0.59462 0.40538
X59 X 0.68202 0.59272 0.40728
X60 X 0.68641 0.59082 0.40918
X61 X 0.69079 0.58892 0.41108
X62 X 0.69516 0.58699 0.41301
X63 X 0.69952 0.58505 0.41495
X64 X 0.70386 0.58310 0.41690
X65 X 0.70818 0.58112 0.41888
X66 X 0.71249 0.57912 0.42088
X67 X 0.71677 0.57710 0.42290
X68 X 0.72103 0.57506 0.42494
X69 X 0.72526 0.57299 0.42701
X70 X 0.72946 0.57088 0.42912
X71 X 0.73363 0.56874 0.43126
X72 X 0.73780 0.56661 0.43339
X73 X 0.74189 0.56440 0.43560
X74 X 0.74592 0.56214 0.43786
X75 X 0.74989 0.55982 0.44018
X76 X 0.75376 0.55742 0.44258
X77 X 0.75750 0.55492 0.44508
X78 X 0.76106 0.55229 0.44771
X79 X 0.76429 0.54945 0.45055
X80 X 0.76693 0.54633 0.45367
X81 X 0.76865 0.54290 0.45710
X82 X 0.76933 0.53929 0.46071
X83 X 0.76948 0.53565 0.46435
X84 X 0.76891 0.53203 0.46797
X85 X 0.76829 0.52842 0.47158
X86 X 0.76775 0.52480 0.47520
X87 X 0.76728 0.52117 0.47883
X88 X 0.76687 0.51754 0.48246
X89 X 0.76658 0.51391 0.48609
X90 X 0.76638 0.51027 0.48973
X91 X 0.76623 0.50663 0.49337
X92 X 0.76615 0.50299 0.49701
X93 X 0.76613 0.50000 0.50000
X94 X 0.76615 0.49701 0.50299
X95 X 0.76623 0.49337 0.50663
X96 X 0.76638 0.48973 0.51027
X97 X 0.76658 0.48609 0.51391
X98 X 0.76687 0.48246 0.51754
X99 X 0.76728 0.47883 0.52117
X100 X 0.76775 0.47520 0.52480
X101 X 0.76829 0.47158 0.52842
X102 X 0.76891 0.46797 0.53203
X103 X 0.76948 0.46435 0.53565
X104 X 0.76933 0.46071 0.53929
X105 X 0.76865 0.45710 0.54290
X106 X 0.76693 0.45367 0.54633
X107 X 0.76429 0.45055 0.54945
X108 X 0.76106 0.44771 0.55229
X109 X 0.75750 0.44508 0.55492
X110 X 0.75376 0.44258 0.55742
X111 X 0.74989 0.44018 0.55982
X112 X 0.74592 0.43786 0.56214
X113 X 0.74189 0.43560 0.56440
X114 X 0.73780 0.43339 0.56661
X115 X 0.73363 0.43126 0.56874
X116 X 0.72946 0.42912 0.57088
X117 X 0.72526 0.42701 0.57299
X118 X 0.72103 0.42494 0.57506
X119 X 0.71677 0.42290 0.57710
X120 X 0.71249 0.42088 0.57912
X121 X 0.70818 0.41888 0.58112
X122 X 0.70386 0.41690 0.58310
X123 X 0.69952 0.41495 0.58505
X124 X 0.69516 0.41301 0.58699
X125 X 0.69079 0.41108 0.58892
X126 X 0.68641 0.40918 0.59082
X127 X 0.68202 0.40728 0.59272
X128 X 0.67762 0.40538 0.59462
X129 X 0.67322 0.40349 0.59651
X130 X 0.66882 0.40160 0.59840
X131 X 0.66442 0.39972 0.60028
X132 X 0.66001 0.39783 0.60217
X133 X 0.65562 0.39594 0.60406
X134 X 0.65123 0.39404 0.60596
X135 X 0.64685 0.39212 0.60788
X136 X 0.64248 0.39020 0.60980
X137 X 0.63813 0.38825 0.61175
X138 X 0.63379 0.38629 0.61371
X139 X 0.62947 0.38432 0.61568
X140 X 0.62517 0.38231 0.61769
X141 X 0.62089 0.38029 0.61971
X142 X 0.61665 0.37823 0.62177
X143 X 0.61243 0.37614 0.62386
X144 X 0.60825 0.37402 0.62598
X145 X 0.60407 0.37189 0.62811
X146 X 0.59998 0.36968 0.63032
X147 X 0.59594 0.36743 0.63257
X148 X 0.59197 0.36511 0.63489
X149 X 0.58808 0.36272 0.63728
X150 X 0.58429 0.36026 0.63974
X151 X 0.58061 0.35772 0.64228
X152 X 0.57705 0.35508 0.64492
X153 X 0.57364 0.35236 0.64764
X154 X 0.57037 0.34955 0.65045
X155 X 0.56724 0.34666 0.65334
X156 X 0.56426 0.34369 0.65631
X157 X 0.56140 0.34066 0.65934
X158 X 0.55864 0.33759 0.66241
X159 X 0.55597 0.33448 0.66552
X160 X 0.55336 0.33134 0.66866
X161 X 0.55080 0.32818 0.67182
X162 X 0.54829 0.32500 0.67500
X163 X 0.54581 0.32182 0.67818
X164 X 0.54335 0.31862 0.68138
X165 X 0.54090 0.31541 0.68459
X166 X 0.53846 0.31221 0.68779
X167 X 0.53604 0.30900 0.69100
X168 X 0.53362 0.30578 0.69422
X169 X 0.53121 0.30257 0.69743
X170 X 0.52879 0.29935 0.70065
X171 X 0.52638 0.29614 0.70386
X172 X 0.52396 0.29292 0.70708
X173 X 0.52154 0.28971 0.71029
X174 X 0.51912 0.28650 0.71350
X175 X 0.51670 0.28329 0.71671
X176 X 0.51426 0.28008 0.71992
X177 X 0.51183 0.27687 0.72313
X178 X 0.50940 0.27367 0.72633
X179 X 0.50695 0.27046 0.72954
X180 X 0.50451 0.26726 0.73274
X181 X 0.50207 0.26405 0.73595
X182 X 0.49963 0.26085 0.73915
X183 X 0.49722 0.25763 0.74237
X184 X 0.49483 0.25441 0.74559
X185 X 0.49258 0.25113 0.74887
Li1 Li 0.50000 0.75000 0.25000
Li2 Li 0.50000 0.25000 0.75000
Li3 Li 0.45378 0.75000 0.75000
Li4 Li 0.45378 0.25000 0.25000
Li5 Li 0.72689 0.75000 0.02311
Li6 Li 0.72689 0.25000 0.97689
Li7 Li 0.22689 0.75000 0.97689
Li8 Li 0.22689 0.25000 0.02311
Li9 Li 0.72689 0.52311 0.25000
Li10 Li 0.72689 0.47689 0.75000
Li11 Li 0.22689 0.52311 0.75000
Li12 Li 0.22689 0.47689 0.25000
Li13 Li 0.72689 0.25000 0.52311
Li14 Li 0.72689 0.75000 0.47689
Li15 Li 0.22689 0.25000 0.47689
Li16 Li 0.22689 0.75000 0.52311
Li17 Li 0.72689 0.02311 0.75000
Li18 Li 0.72689 0.97689 0.25000
Li19 Li 0.22689 0.02311 0.25000
Li20 Li 0.22689 0.97689 0.75000
Li21 Li 0.00000 0.75000 0.75000
Li22 Li 0.00000 0.25000 0.25000
Li23 Li 0.95378 0.75000 0.25000
Li24 Li 0.95378 0.25000 0.75000
P1 P 0.97689 0.00000 0.50000
P2 P 0.97689 0.50000 0.00000
P3 P 0.47689 0.00000 0.00000
P4 P 0.47689 0.50000 0.50000
S1 S 0.09241 0.11552 0.61552
S2 S 0.09241 0.88448 0.38448
S3 S 0.86137 0.11552 0.38448
S4 S 0.86137 0.88448 0.61552
S5 S 0.09241 0.61552 0.11552
S6 S 0.09241 0.38448 0.88448
S7 S 0.86137 0.61552 0.88448
S8 S 0.86137 0.38448 0.11552
S9 S 0.59241 0.11552 0.11552
S10 S 0.59241 0.88448 0.88448
S11 S 0.36137 0.11552 0.88448
S12 S 0.36137 0.88448 0.11552
S13 S 0.59241 0.61552 0.61552
S14 S 0.59241 0.38448 0.38448
S15 S 0.36137 0.61552 0.38448
S16 S 0.36137 0.38448 0.61552
S17 S 0.72689 0.75000 0.25000
S18 S 0.72689 0.25000 0.75000
S19 S 0.22689 0.75000 0.75000
S20 S 0.22689 0.25000 0.25000
Cl1 Cl 0.47689 0.50000 0.00000
Cl2 Cl 0.47689 0.00000 0.50000
Cl3 Cl 0.97689 0.50000 0.50000
Cl4 Cl 0.97689 0.00000 0.00000
#End of findsym-output
